[TITLE]
Generated from GeoPackage

[JUNCTIONS]
 Junction-11333                       97.6333
 Junction-9867                       121.4200
 Junction-41889                      105.2600
 Junction-58243                       98.1600
 Junction-470196                     132.2500
 Junction-33290                      122.2000
 Junction-22893                      102.9300
 Junction-477135                     104.5233
 Junction-33066                      101.9900
 Junction-32980                      105.0900
 Junction-54141                      108.1833
 Junction-42448                       94.4650
 Junction-476666                     104.2125
 Junction-42328                      101.6100
 Junction-48813                      105.5360
 Junction-48549                      124.8650
 Junction-41949                      125.9300
 Junction-42327                      101.1700
 Junction-469106                     113.2075
 Junction-33206                      111.2325
 Junction-474076                     104.3600
 Junction-33063                      108.1200
 Junction-10403                      124.2200
 Junction-33597                      107.5833
 Junction-33292                      133.4000
 Junction-57910                      106.6750
 Junction-42678                       84.8900
 Junction-476548                     113.4767
 Junction-22999                      134.7633
 Junction-53571                      122.9933
 Junction-41886                      104.4533
 Junction-10831                      117.4200
 Junction-58025                      102.4150
 Junction-461030                      80.0725
 Junction-474014                     109.0800
 Junction-477012                     103.9650
 Junction-23919                       78.7600
 Junction-474623                     114.3367
 Junction-32873                      109.5929
 Junction-54521                       99.6700
 Junction-42343                      114.3367
 Junction-41792                      108.8850
 Junction-33741                      107.9775
 Junction-22246                      128.8600
 Junction-34104                       85.3700
 Junction-60348                      124.2550
 Junction-476250                     104.1172
 Junction-476654                     103.2850
 Junction-33886                      107.5767
 Junction-476063                     104.9127
 Junction-33473                      118.4167
 Junction-23702                       97.3667
 Junction-10119                      103.8100
 Junction-22793                      107.5933
 Junction-473943                     104.2267
 Junction-60445                      103.4067
 Junction-60557                      114.4850
 Junction-41706                      106.2550
 Junction-54647                       79.6550
 Junction-42539                       81.4600
 Junction-22900                      111.2050
 Junction-54269                      109.3100
 Junction-23271                      107.1100
 Junction-9280                       110.9800
 Junction-42532                       99.4600
 Junction-41519                      124.6500
 Junction-54377                      100.9733
 Junction-41025                      117.8900
 Junction-9862                       121.9100
 Junction-61114                      132.5000
 Junction-58029                      120.6200
 Junction-451233                      88.7683
 Junction-476728                     102.9850
 Junction-54459                      109.2950
 Junction-21329                      122.9167
 Junction-23422                      103.6050
 Junction-474834                      76.3900
 Junction-49245                       97.6033
 Junction-11331                      100.9400
 Junction-464530                     100.6667
 Junction-465667                     132.8925
 Junction-53648                      119.5120
 Junction-463447                     124.8533
 Junction-42181                       93.8580
 Junction-10624                      110.7433
 Junction-33208                      119.7000
 Junction-473831                     110.6700
 Junction-42108                      103.8467
 Junction-42538                       84.5116
 Junction-476730                     103.2900
 Junction-48826                      129.6000
 Junction-469470                     107.4300
 Junction-33890                      101.8900
 Junction-49174                      110.4000
 Junction-22383                      111.0700
 Junction-11442                       85.6300
 Junction-11202                      104.4735
 Junction-41797                      107.8300
 Junction-10816                      115.6950
 Junction-473952                     111.8467
 Junction-58182                      104.2533
 Junction-62101                      102.8500
 Junction-475030                     125.9333
 Junction-23596                      103.4200
 Junction-49169                       99.4800
 Junction-54573                       97.6333
 Junction-49178                       97.8266
 Junction-41795                      111.1600
 Junction-42102                      110.8550
 Junction-49382                       89.1833
 Junction-465060                      93.9150
 Junction-475209                     106.3175
 Junction-11185                       91.5867
 Junction-54321                      111.1400
 Junction-62468                      101.6079
 Junction-11330                       97.2700
 Junction-23825                       86.7667
 Junction-474888                     108.1767
 Junction-49166                       93.0000
 Junction-23260                       93.5000
 Junction-54450                       91.7767
 Junction-54523                      111.0550
 Junction-54273                      123.4200
 Junction-33604                      117.7250
 Junction-23574                       93.1650
 Junction-42342                      113.1800
 Junction-33578                      101.8900
 Junction-54184                      104.2200
 Junction-23428                       88.7150
 Junction-11193                      110.9900
 Junction-61984                      103.0167
 Junction-41703                      124.2200
 Junction-48989                      102.1733
 Junction-33598                      107.7818
 Junction-48814                      113.5950
 Junction-476061                     109.3800
 Junction-23445                      116.4750
 Junction-62480                      107.6100
 Junction-22899                      118.6657
 Junction-32762                      119.6100
 Junction-54465                      115.8933
 Junction-476651                     104.9300
 Junction-473820                     105.0450
 Junction-42429                       87.6650
 Junction-54180                      103.7500
 Junction-9286                       110.0567
 Junction-23801                       81.4400
 Junction-54508                       97.2967
 Junction-9661                       122.9733
 Junction-33363                      113.8625
 Junction-49059                       95.3300
 Junction-58111                      114.1750
 Junction-476248                     104.0667
 Junction-41890                      111.5700
 Junction-48809                       98.9033
 Junction-23441                      117.0900
 Junction-9859                       106.7600
 Junction-49388                       87.9150
 Junction-23137                      114.2400
 Junction-53843                      110.6180
 Junction-42330                      102.1850
 Junction-23824                       87.0050
 Junction-465847                     125.1150
 Junction-49253                      111.1600
 Junction-472532                     113.0600
 Junction-452400                      87.8457
 Junction-10391                      119.6750
 Junction-10306                      129.7450
 Junction-42110                      101.4525
 Junction-49257                      110.8100
 Junction-33074                      112.0638
 Junction-473884                     104.5400
 Junction-58150                      119.2067
 Junction-58236                      103.8900
 Junction-49381                       86.7700
 Junction-34011                       93.3100
 Junction-10628                      113.0900
 Junction-476652                     104.9200
 Junction-10120                      101.5700
 Junction-23916                       82.2350
 Junction-42194                      132.4067
 Junction-10281                      102.3400
 Junction-11017                       89.0400
 Junction-32518                      111.1100
 Junction-10793                       99.8300
 Junction-49074                      122.2600
 Junction-54455                       89.6650
 Junction-48824                      132.2800
 Junction-33369                      109.9800
 Junction-23139                      118.7881
 Junction-469243                      88.1750
 Junction-23254                       95.4600
 Junction-468950                     113.2400
 Junction-9502                       120.3400
 Junction-42013                      110.6000
 Junction-476062                     104.0133
 Junction-42329                      100.2233
 Junction-42182                       94.9167
 Junction-49243                       97.1420
 Junction-41169                      111.8100
 Junction-49173                       98.2950
 Junction-471900                      86.9800
 Junction-23259                       93.8400
 Junction-49052                      110.8200
 Junction-9052                       113.3425
 Junction-476724                     103.9200
 Junction-9504                       116.6600
 Junction-476592                     103.9000
 Junction-474009                     104.0933
 Junction-9047                       114.3800
 Junction-33216                      124.7967
 Junction-474020                     110.5450
 Junction-10492                      112.6850
 Junction-60634                       94.1800
 Junction-473881                     104.5467
 Junction-11582                       80.4767
 Junction-473892                     110.9700
 Junction-54233                      123.6300
 Junction-33999                      103.0467
 Junction-42535                       84.7550
 Junction-53913                      119.6100
 Junction-49179                      112.8475
 Junction-8759                       116.6300
 Junction-48992                      111.1000
 Junction-33071                      111.5040
 Junction-33996                       99.1000
 Junction-23275                      110.2667
 Junction-474887                     108.1900
 Junction-58349                       90.7700
 Junction-58183                      111.6000
 Junction-22678                      102.3467
 Junction-10282                      102.8200
 Junction-23433                       99.7400
 Junction-9509                       106.3367
 Junction-477251                     107.5350
 Junction-41793                      108.1625
 Junction-49236                       99.2175
 Junction-42428                       93.8850
 Junction-472535                      93.6000
 Junction-11016                       82.9463
 Junction-473827                     104.6133
 Junction-42339                      113.8275
 Junction-11194                      110.9600
 Junction-9981                       124.1750
 Junction-477451                     104.1950
 Junction-32321                      114.9400
 Junction-48811                      103.3433
 Junction-476727                     102.9300
 Junction-9985                       106.7200
 Junction-476211                     106.8100
 Junction-34186                       84.7733
 Junction-22905                      120.7250
 Junction-473837                     110.0767
 Junction-477158                     108.1300
 Junction-48675                      107.7100
 Junction-473890                     111.9250
 Junction-23696                       99.1400
 Junction-54442                      107.4840
 Junction-22891                      107.5900
 Junction-470141                     125.4500
 Junction-11434                       92.5000
 Junction-11566                       84.7651
 Junction-460577                     114.3950
 Junction-42185                      115.7133
 Junction-10807                       98.2050
 Junction-22112                      121.3400
 Junction-23135                      112.8300
 Junction-473950                     110.5050
 Junction-476252                     105.0500
 Junction-22677                      102.3125
 Junction-33893                       97.2950
 Junction-466551                     112.7400
 Junction-10301                      131.9500
 Junction-33212                      117.9050
 Junction-22903                      120.4950
 Junction-23913                       80.6775
 Junction-54270                      110.3167
 Junction-42677                       85.0919
 Junction-474017                     109.2067
 Junction-460581                     113.7233
 Junction-41430                      121.8800
 Junction-10499                      123.8450
 Junction-48987                      103.6633
 Junction-11424                       86.8825
 Junction-23589                      105.8650
 Junction-32327                      113.2300
 Junction-54035                      128.2850
 Junction-23692                      101.6133
 Junction-23276                      113.8800
 Junction-476060                     108.8275
 Junction-58028                      114.5200
 Junction-48805                      110.5400
 Junction-42431                       97.6867
 Junction-477137                     105.2000
 Junction-54189                      125.5200
 Junction-42104                      112.7033
 Junction-42307                      101.9000
 Junction-42611                       94.8833
 Junction-10507                      127.2350
 Junction-23269                      106.9175
 Junction-10132                      102.0300
 Junction-60376                      128.2000
 Junction-23442                      117.1567
 Junction-23588                       97.7900
 Junction-23691                      100.7100
 Junction-60612                       97.2950
 Junction-42622                       88.0000
 Junction-33880                       96.5550
 Junction-34182                       84.4700
 Junction-49259                      106.9500
 Junction-48990                      101.0867
 Junction-49069                      114.0150
 Junction-469491                     118.6867
 Junction-469314                     122.1050
 Junction-472172                      87.8350
 Junction-11025                      100.7333
 Junction-34016                       81.4000
 Junction-49392                       79.9950
 Junction-41628                      106.2100
 Junction-465848                     124.1772
 Junction-474085                     110.1100
 Junction-42196                      123.4867
 Junction-10399                      127.9025
 Junction-48821                      125.6467
 Junction-474016                     109.1950
 Junction-32859                      129.2350
 Junction-53845                      105.1750
 Junction-476897                     104.0000
 Junction-10821                      107.0933
 Junction-32858                      129.2967
 Junction-23263                      106.4100
 Junction-49321                       95.6150
 Junction-451223                      87.9292
 Junction-473948                     111.9075
 Junction-10795                      103.6367
 Junction-462494                      94.5125
 Junction-22247                      128.5050
 Junction-48674                      124.0275
 Junction-32520                      111.3750
 Junction-467856                     121.7875
 Junction-23430                       98.4200
 Junction-10614                      114.2150
 Junction-48263                      111.9050
 Junction-41024                      117.5875
 Junction-48810                      103.4800
 Junction-33576                      112.6900
 Junction-33601                      113.1400
 Junction-462456                     113.2400
 Junction-460641                     122.0440
 Junction-42623                       88.8667
 Junction-22524                      106.5367
 Junction-473886                     111.4700
 Junction-23449                      113.3900
 Junction-33748                       91.9767
 Junction-460476                     106.5780
 Junction-22527                      106.1267
 Junction-23132                      112.3700
 Junction-33474                      108.0500
 Junction-48401                      111.3200
 Junction-11577                       79.0867
 Junction-477197                     108.7300
 Junction-49072                      117.2350
 Junction-33197                      102.6533
 Junction-10830                      121.2433
 Junction-42193                      114.8550
 Junction-11341                       90.9867
 Junction-11192                      108.2876
 Junction-32322                      115.2641
 Junction-33577                      105.3733
 Junction-54458                      110.1300
 Junction-471222                     123.7104
 Junction-9660                       129.3300
 Junction-22911                      124.7450
 Junction-469315                     122.3000
 Junction-474084                     110.5633
 Junction-476583                     105.9833
 Junction-21978                      111.4625
 Junction-48873                      121.6333
 Junction-60478                      114.1950
 Junction-10824                      119.4000
 Junction-10130                      102.5550
 Junction-33876                       87.5100
 Junction-54607                       96.1133
 Junction-49241                       95.5925
 Junction-23577                       94.2467
 Junction-42430                       88.4750
 Junction-23418                      108.9300
 Junction-11189                       99.9700
 Junction-60429                      111.4425
 Junction-33192                      110.4500
 Junction-10307                      130.9650
 Junction-33057                      103.1200
 Junction-22810                      125.7550
 Junction-475535                     107.5875
 Junction-11028                       94.2200
 Junction-42024                      127.2300
 Junction-23570                       97.3100
 Junction-9503                       118.5100
 Junction-33603                      117.7200
 Junction-49164                      103.4733
 Junction-22519                      124.0467
 Junction-470197                     131.8400
 Junction-474471                     124.5850
 Junction-42184                      113.0567
 Junction-58184                      103.0750
 Junction-473514                     121.9650
 Junction-60581                       93.4650
 Junction-469493                      89.0433
 Junction-32760                      126.2100
 Junction-60633                       80.7940
 Junction-49385                       85.6925
 Junction-48676                      104.5400
 Junction-41883                      102.1167
 Junction-468904                     111.3450
 Junction-11344                       83.3220
 Junction-54453                       90.8800
 Junction-11345                       84.4800
 Junction-49071                      114.1533
 Junction-22808                      115.1550
 Junction-465440                     111.4167
 Junction-11576                       79.8900
 Junction-10832                      117.6575
 Junction-34000                      102.2500
 Junction-42610                       80.5500
 Junction-49055                      100.7500
 Junction-60610                      100.7775
 Junction-42332                      113.9433
 Junction-58238                       91.4850
 Junction-34191                       80.2200
 Junction-54313                      109.9000
 Junction-34007                      100.3900
 Junction-57806                      108.6950
 Junction-23116                      113.5567
 Junction-58245                      114.4350
 Junction-48998                      118.4200
 Junction-48402                      111.4033
 Junction-42106                      106.8133
 Junction-58242                      103.2800
 Junction-22385                      101.7175
 Junction-473880                     104.6000
 Junction-54610                       87.6000
 Junction-477250                     107.8100
 Junction-10486                      110.0400
 Junction-11564                       84.3812
 Junction-33194                      102.5633
 Junction-33289                      121.4100
 Junction-465712                     113.5300
 Junction-54440                      109.9500
 Junction-42679                       78.5950
 Junction-33367                      109.4000
 Junction-33191                      110.9300
 Junction-58346                       83.8700
 Junction-22796                      102.7500
 Junction-23682                       94.4925
 Junction-468877                     106.3175
 Junction-475816                      94.7567
 Junction-48736                      106.5367
 Junction-49325                       95.6900
 Junction-60515                      101.1100
 Junction-22906                      123.7860
 Junction-33763                      117.0750
 Junction-54648                       80.0500
 Junction-34188                       79.1500
 Junction-53570                      123.2350
 Junction-57742                      111.8050
 Junction-33288                      111.5600
 Junction-60555                       90.6200
 Junction-42614                       94.2300
 Junction-33209                      125.4597
 Junction-58022                      103.8375
 Junction-23251                      101.6500
 Junction-476116                     109.0450
 Junction-11428                       83.7600
 Junction-58352                       84.3350
 Junction-23434                      103.8600
 Junction-10502                      120.4450
 Junction-33065                      111.2857
 Junction-34278                       77.5900
 Junction-23262                      105.4550
 Junction-460477                     106.4400
 Junction-62488                      104.0700
 Junction-33751                       90.0020
 Junction-11018                       88.6375
 Junction-470031                     104.2461
 Junction-9508                       105.5000
 Junction-54042                       96.6546
 Junction-464163                     116.0100
 Junction-42445                      102.8050
 Junction-465711                     113.2133
 Junction-469311                     113.3200
 Junction-54571                      102.0550
 Junction-10268                      103.0000
 Junction-33477                      113.6300
 Junction-54228                      107.0100
 Junction-58277                       98.0950
 Junction-33207                      119.3300
 Junction-23252                      103.9233
 Junction-42186                      108.5467
 Junction-33871                       98.3250
 Junction-62482                      105.4400
 Junction-476224                     107.9125
 Junction-60407                      124.3660
 Junction-11005                      105.1550
 Junction-23800                       86.7300
 Junction-58190                      112.6300
 Junction-10788                      111.8133
 Junction-60447                      104.4250
 Junction-10629                      124.2150
 Junction-477550                      79.9550
 Junction-54374                      109.4860
 Junction-49168                       93.1100
 Junction-11443                       85.9950
 Junction-11325                      102.3150
 Junction-476115                     109.3733
 Junction-460584                     115.8100
 Junction-474892                     106.8625
 Junction-22679                      102.4033
 Junction-10395                      111.0000
 Junction-23826                       80.7750
 Junction-61113                       96.6499
 Junction-42619                       86.8900
 Junction-54457                      109.8025
 Junction-42527                       95.4800
 Junction-58149                      111.3650
 Junction-54315                      102.7075
 Junction-60609                       94.5950
 Junction-58074                      109.2300
 Junction-10485                      109.9900
 Junction-33891                      102.0700
 Junction-476226                     107.3300
 Junction-9865                       113.8400
 Junction-11347                       85.9450
 Junction-49391                       80.2333
 Junction-452725                     108.0825
 Junction-474893                     107.9075
 Junction-58353                       88.2033
 Junction-49161                      105.3567
 Junction-32325                      110.2567
 Junction-9046                       114.6000
 Junction-42522                       96.9900
 Junction-54148                      112.7400
 Junction-465493                     114.4800
 Junction-22800                      105.8100
 Junction-22809                      125.7367
 Junction-42028                      126.2360
 Junction-9506                       120.9333
 Junction-465676                     132.9700
 Junction-49319                       84.8800
 Junction-48133                      120.0000
 Junction-10121                      103.1900
 Junction-49439                       79.0050
 Junction-11336                       97.2400
 Junction-23255                       96.1925
 Junction-57807                      111.9600
 Junction-41167                      114.5950
 Junction-54037                      121.7150
 Junction-62466                      111.0100
 Junction-42609                       85.8800
 Junction-9988                       104.8500
 Junction-23423                       93.6600
 Junction-57935                      113.1533
 Junction-33218                      125.2150
 Junction-23439                      114.3300
 Junction-54515                       84.4325
 Junction-49176                      102.7667
 Junction-476655                     103.9400
 Junction-32125                      118.7667
 Junction-42315                       93.4950
 Junction-33190                      110.8500
 Junction-48673                      123.3550
 Junction-49165                       98.6650
 Junction-477253                     106.8100
 Junction-471897                      87.0500
 Junction-10279                      102.3833
 Junction-462909                     111.1900
 Junction-10269                      103.0533
 Junction-476589                     104.3700
 Junction-10280                      102.4150
 Junction-11338                       95.8500
 Junction-10823                      119.4160
 Junction-23597                      103.2950
 Junction-42437                      106.6900
 Junction-42191                      113.7150
 Junction-41804                      108.4250
 Junction-33778                      110.5850
 Junction-22988                      114.2500
 Junction-49249                      109.0167
 Junction-34099                       88.0367
 Junction-23812                       88.9250
 Junction-9667                       125.0183
 Junction-57743                      107.2800
 Junction-22377                      127.8433
 Junction-469495                     122.7800
 Junction-22378                      127.7200
 Junction-23697                       98.8700
 Junction-10138                      103.7150
 Junction-451226                      87.8750
 Junction-11029                      102.0477
 Junction-10128                      102.0025
 Junction-33585                       99.5450
 Junction-10826                      122.1900
 Junction-464302                      94.5300
 Junction-42321                       88.9967
 Junction-473833                     110.7050
 Junction-58355                       81.9900
 Junction-466030                     112.8600
 Junction-23690                      103.0400
 Junction-9665                       108.1400
 Junction-58151                      118.6800
 Junction-33215                      123.9080
 Junction-23808                       89.2167
 Junction-23126                      112.2567
 Junction-22518                      124.1120
 Junction-33475                      114.9400
 Junction-473946                     110.5550
 Junction-53974                      125.4667
 Junction-41885                      105.0775
 Junction-462500                      98.1225
 Junction-476791                     100.4300
 Junction-474018                     110.6933
 Junction-22987                      115.1967
 Junction-49438                       77.6250
 Junction-476225                     107.6333
 Junction-23813                       89.6900
 Junction-48407                      105.4767
 Junction-11569                       85.0050
 Junction-477200                     108.4560
 Junction-469074                     121.4450
 Junction-473940                     104.2900
 Junction-60514                      102.9867
 Junction-54611                       86.0900
 Junction-49386                       86.6867
 Junction-11011                       93.2860
 Junction-41627                      121.5300
 Junction-474891                     107.6550
 Junction-22114                      122.2667
 Junction-33362                      113.8000
 Junction-48742                      102.1550
 Junction-23281                      120.7167
 Junction-471903                      87.1837
 Junction-34096                       87.8200
 Junction-23277                      113.9450
 Junction-464465                      95.1750
 Junction-476213                     106.8533
 Junction-54574                       95.2633
 Junction-473883                     104.3750
 Junction-22382                      111.9467
 Junction-9860                       110.0750
 Junction-22908                      132.7200
 Junction-471356                     126.7475
 Junction-476117                     109.0950