[TITLE]
Generated from GeoJSON

[JUNCTIONS]
;ID   Elevation Demand
node_1 0 0
node_2 0 0
node_3 0 0
node_4 0 0
node_5 0 0
node_6 0 0
node_7 0 0
node_8 0 0
node_9 0 0
node_10 0 0
node_11 0 0
node_12 0 0
node_13 0 0
node_14 0 0
node_15 0 0
node_16 0 0
node_17 0 0
node_18 0 0
node_19 0 0
node_20 0 0
node_21 0 0
node_22 0 0
node_23 0 0
node_24 0 0
node_25 0 0
node_26 0 0
node_27 0 0
node_28 0 0
node_29 0 0
node_30 0 0
node_31 0 0
node_32 0 0
node_33 0 0
node_34 0 0
node_35 0 0
node_36 0 0
node_37 0 0
node_38 0 0
node_39 0 0
node_40 0 0
node_41 0 0
node_42 0 0
node_43 0 0
node_44 0 0
node_45 0 0
node_46 0 0
node_47 0 0
node_48 0 0
node_49 0 0
node_50 0 0
node_51 0 0
node_52 0 0
node_53 0 0
node_54 0 0
node_55 0 0
node_56 0 0
node_57 0 0
node_58 0 0
node_59 0 0
node_60 0 0
node_61 0 0
node_62 0 0
node_63 0 0
node_64 0 0
node_65 0 0
node_66 0 0
node_67 0 0
node_68 0 0
node_69 0 0
node_70 0 0
node_71 0 0
node_72 0 0
node_73 0 0
node_74 0 0
node_75 0 0
node_76 0 0
node_77 0 0
node_78 0 0
node_79 0 0
node_80 0 0
node_81 0 0
node_82 0 0
node_83 0 0
node_84 0 0
node_85 0 0
node_86 0 0
node_87 0 0
node_88 0 0
node_89 0 0
node_90 0 0
node_91 0 0
node_92 0 0
node_93 0 0
node_94 0 0
node_95 0 0
node_96 0 0
node_97 0 0
node_98 0 0
node_99 0 0
node_100 0 0
node_101 0 0
node_102 0 0
node_103 0 0
node_104 0 0
node_105 0 0
node_106 0 0
node_107 0 0
node_108 0 0
node_109 0 0
node_110 0 0
node_111 0 0
node_112 0 0
node_113 0 0
node_114 0 0
node_115 0 0
node_116 0 0
node_117 0 0
node_118 0 0
node_119 0 0
node_120 0 0
node_121 0 0
node_122 0 0
node_123 0 0
node_124 0 0
node_125 0 0
node_126 0 0
node_127 0 0
node_128 0 0
node_129 0 0
node_130 0 0
node_131 0 0
node_132 0 0
node_133 0 0
node_134 0 0
node_135 0 0
node_136 0 0
node_137 0 0
node_138 0 0
node_139 0 0
node_140 0 0
node_141 0 0
node_142 0 0
node_143 0 0
node_144 0 0
node_145 0 0
node_146 0 0
node_147 0 0
node_148 0 0
node_149 0 0
node_150 0 0
node_151 0 0
node_152 0 0
node_153 0 0
node_154 0 0
node_155 0 0
node_156 0 0
node_157 0 0
node_158 0 0
node_159 0 0
node_160 0 0
node_161 0 0
node_162 0 0
node_163 0 0
node_164 0 0
node_165 0 0
node_166 0 0
node_167 0 0
node_168 0 0
node_169 0 0
node_170 0 0
node_171 0 0
node_172 0 0
node_173 0 0
node_174 0 0
node_175 0 0
node_176 0 0
node_177 0 0
node_178 0 0
node_179 0 0
node_180 0 0
node_181 0 0
node_182 0 0
node_183 0 0
node_184 0 0
node_185 0 0
node_186 0 0
node_187 0 0
node_188 0 0
node_189 0 0
node_190 0 0
node_191 0 0
node_192 0 0
node_193 0 0
node_194 0 0
node_195 0 0
node_196 0 0
node_197 0 0
node_198 0 0
node_199 0 0
node_200 0 0
node_201 0 0
node_202 0 0
node_203 0 0
node_204 0 0
node_205 0 0
node_206 0 0
node_207 0 0
node_208 0 0
node_209 0 0
node_210 0 0
node_211 0 0
node_212 0 0
node_213 0 0
node_214 0 0
node_215 0 0
node_216 0 0
node_217 0 0
node_218 0 0
node_219 0 0
node_220 0 0
node_221 0 0
node_222 0 0
node_223 0 0
node_224 0 0
node_225 0 0
node_226 0 0
node_227 0 0
node_228 0 0
node_229 0 0
node_230 0 0
node_231 0 0
node_232 0 0
node_233 0 0
node_234 0 0
node_235 0 0
node_236 0 0
node_237 0 0
node_238 0 0
node_239 0 0
node_240 0 0
node_241 0 0
node_242 0 0
node_243 0 0
node_244 0 0
node_245 0 0
node_246 0 0
node_247 0 0
node_248 0 0
node_249 0 0
node_250 0 0
node_251 0 0
node_252 0 0
node_253 0 0
node_254 0 0
node_255 0 0
node_256 0 0
node_257 0 0
node_258 0 0
node_259 0 0
node_260 0 0
node_261 0 0
node_262 0 0
node_263 0 0
node_264 0 0
node_265 0 0
node_266 0 0
node_267 0 0
node_268 0 0
node_269 0 0
node_270 0 0
node_271 0 0
node_272 0 0
node_273 0 0
node_274 0 0
node_275 0 0
node_276 0 0
node_277 0 0
node_278 0 0
node_279 0 0
node_280 0 0
node_281 0 0
node_282 0 0
node_283 0 0
node_284 0 0
node_285 0 0
node_286 0 0
node_287 0 0
node_288 0 0
node_289 0 0
node_290 0 0
node_291 0 0
node_292 0 0
node_293 0 0
node_294 0 0
node_295 0 0
node_296 0 0
node_297 0 0
node_298 0 0
node_299 0 0
node_300 0 0
node_301 0 0
node_302 0 0
node_303 0 0
node_304 0 0
node_305 0 0
node_306 0 0
node_307 0 0
node_308 0 0
node_309 0 0
node_310 0 0
node_311 0 0
node_312 0 0
node_313 0 0
node_314 0 0
node_315 0 0
node_316 0 0
node_317 0 0
node_318 0 0
node_319 0 0
node_320 0 0
node_321 0 0
node_322 0 0
node_323 0 0
node_324 0 0
node_325 0 0
node_326 0 0
node_327 0 0
node_328 0 0
node_329 0 0
node_330 0 0
node_331 0 0
node_332 0 0
node_333 0 0
node_334 0 0
node_335 0 0
node_336 0 0
node_337 0 0
node_338 0 0
node_339 0 0
node_340 0 0
node_341 0 0
node_342 0 0
node_343 0 0
node_344 0 0
node_345 0 0
node_346 0 0
node_347 0 0
node_348 0 0
node_349 0 0
node_350 0 0
node_351 0 0
node_352 0 0
node_353 0 0
node_354 0 0
node_355 0 0
node_356 0 0
node_357 0 0
node_358 0 0
node_359 0 0
node_360 0 0
node_361 0 0
node_362 0 0
node_363 0 0
node_364 0 0
node_365 0 0
node_366 0 0
node_367 0 0
node_368 0 0
node_369 0 0
node_370 0 0
node_371 0 0
node_372 0 0
node_373 0 0
node_374 0 0
node_375 0 0
node_376 0 0
node_377 0 0
node_378 0 0
node_379 0 0
node_380 0 0
node_381 0 0
node_382 0 0
node_383 0 0
node_384 0 0
node_385 0 0
node_386 0 0
node_387 0 0
node_388 0 0
node_389 0 0
node_390 0 0
node_391 0 0
node_392 0 0
node_393 0 0
node_394 0 0
node_395 0 0
node_396 0 0
node_397 0 0
node_398 0 0
node_399 0 0
node_400 0 0
node_401 0 0
node_402 0 0
node_403 0 0
node_404 0 0
node_405 0 0
node_406 0 0
node_407 0 0
node_408 0 0
node_409 0 0
node_410 0 0
node_411 0 0
node_412 0 0
node_413 0 0
node_414 0 0
node_415 0 0
node_416 0 0
node_417 0 0
node_418 0 0
node_419 0 0
node_420 0 0
node_421 0 0
node_422 0 0
node_423 0 0
node_424 0 0
node_425 0 0
node_426 0 0
node_427 0 0
node_428 0 0
node_429 0 0
node_430 0 0
node_431 0 0
node_432 0 0
node_433 0 0
node_434 0 0
node_435 0 0
node_436 0 0
node_437 0 0
node_438 0 0
node_439 0 0
node_440 0 0
node_441 0 0
node_442 0 0
node_443 0 0
node_444 0 0
node_445 0 0
node_446 0 0
node_447 0 0
node_448 0 0
node_449 0 0
node_450 0 0
node_451 0 0
node_452 0 0
node_453 0 0
node_454 0 0
node_455 0 0
node_456 0 0
node_457 0 0
node_458 0 0
node_459 0 0
node_460 0 0
node_461 0 0
node_462 0 0
node_463 0 0
node_464 0 0
node_465 0 0
node_466 0 0
node_467 0 0
node_468 0 0
node_469 0 0
node_470 0 0
node_471 0 0
node_472 0 0
node_473 0 0
node_474 0 0
node_475 0 0
node_476 0 0
node_477 0 0
node_478 0 0
node_479 0 0
node_480 0 0
node_481 0 0
node_482 0 0
node_483 0 0
node_484 0 0
node_485 0 0
node_486 0 0
node_487 0 0
node_488 0 0
node_489 0 0
node_490 0 0
node_491 0 0
node_492 0 0
node_493 0 0
node_494 0 0
node_495 0 0
node_496 0 0
node_497 0 0
node_498 0 0
node_499 0 0
node_500 0 0
node_501 0 0
node_502 0 0
node_503 0 0
node_504 0 0
node_505 0 0
node_506 0 0
node_507 0 0
node_508 0 0
node_509 0 0
node_510 0 0
node_511 0 0
node_512 0 0
node_513 0 0
node_514 0 0
node_515 0 0
node_516 0 0
node_517 0 0
node_518 0 0
node_519 0 0
node_520 0 0
node_521 0 0
node_522 0 0
node_523 0 0
node_524 0 0
node_525 0 0
node_526 0 0
node_527 0 0
node_528 0 0
node_529 0 0
node_530 0 0
node_531 0 0
node_532 0 0
node_533 0 0
node_534 0 0
node_535 0 0
node_536 0 0
node_537 0 0
node_538 0 0
node_539 0 0
node_540 0 0
node_541 0 0
node_542 0 0
node_543 0 0
node_544 0 0
node_545 0 0
node_546 0 0
node_547 0 0
node_548 0 0
node_549 0 0
node_550 0 0
node_551 0 0
node_552 0 0
node_553 0 0
node_554 0 0
node_555 0 0
node_556 0 0
node_557 0 0
node_558 0 0
node_559 0 0
node_560 0 0
node_561 0 0
node_562 0 0
node_563 0 0
node_564 0 0
node_565 0 0
node_566 0 0
node_567 0 0
node_568 0 0
node_569 0 0
node_570 0 0
node_571 0 0
node_572 0 0
node_573 0 0
node_574 0 0
node_575 0 0
node_576 0 0
node_577 0 0
node_578 0 0
node_579 0 0
node_580 0 0
node_581 0 0
node_582 0 0
node_583 0 0
node_584 0 0
node_585 0 0
node_586 0 0
node_587 0 0
node_588 0 0
node_589 0 0
node_590 0 0
node_591 0 0
node_592 0 0
node_593 0 0
node_594 0 0
node_595 0 0
node_596 0 0
node_597 0 0
node_598 0 0
node_599 0 0
node_600 0 0
node_601 0 0
node_602 0 0
node_603 0 0
node_604 0 0
node_605 0 0
node_606 0 0
node_607 0 0
node_608 0 0
node_609 0 0
node_610 0 0
node_611 0 0
node_612 0 0
node_613 0 0
node_614 0 0
node_615 0 0
node_616 0 0
node_617 0 0
node_618 0 0
node_619 0 0
node_620 0 0
node_621 0 0
node_622 0 0
node_623 0 0
node_624 0 0
node_625 0 0
node_626 0 0
node_627 0 0
node_628 0 0
node_629 0 0
node_630 0 0
node_631 0 0
node_632 0 0
node_633 0 0
node_634 0 0
node_635 0 0
node_636 0 0
node_637 0 0
node_638 0 0
node_639 0 0
node_640 0 0
node_641 0 0
node_642 0 0
node_643 0 0
node_644 0 0
node_645 0 0
node_646 0 0
node_647 0 0
node_648 0 0
node_649 0 0
node_650 0 0
node_651 0 0
node_652 0 0
node_653 0 0
node_654 0 0
node_655 0 0
node_656 0 0
node_657 0 0
node_658 0 0
node_659 0 0
node_660 0 0
node_661 0 0
node_662 0 0
node_663 0 0
node_664 0 0
node_665 0 0
node_666 0 0
node_667 0 0
node_668 0 0
node_669 0 0
node_670 0 0
node_671 0 0
node_672 0 0
node_673 0 0
node_674 0 0
node_675 0 0
node_676 0 0
node_677 0 0
node_678 0 0
node_679 0 0
node_680 0 0
node_681 0 0
node_682 0 0
node_683 0 0
node_684 0 0
node_685 0 0
node_686 0 0
node_687 0 0
node_688 0 0
node_689 0 0
node_690 0 0
node_691 0 0
node_692 0 0
node_693 0 0
node_694 0 0
node_695 0 0
node_696 0 0
node_697 0 0
node_698 0 0
node_699 0 0
node_700 0 0
node_701 0 0
node_702 0 0
node_703 0 0
node_704 0 0
node_705 0 0
node_706 0 0
node_707 0 0
node_708 0 0
node_709 0 0
node_710 0 0
node_711 0 0
node_712 0 0
node_713 0 0
node_714 0 0
node_715 0 0
node_716 0 0
node_717 0 0
node_718 0 0
node_719 0 0
node_720 0 0
node_721 0 0
node_722 0 0
node_723 0 0
node_724 0 0
node_725 0 0
node_726 0 0
node_727 0 0
node_728 0 0
node_729 0 0
node_730 0 0
node_731 0 0
node_732 0 0
node_733 0 0
node_734 0 0
node_735 0 0
node_736 0 0
node_737 0 0
node_738 0 0
node_739 0 0
node_740 0 0
node_741 0 0
node_742 0 0
node_743 0 0
node_744 0 0
node_745 0 0
node_746 0 0
node_747 0 0
node_748 0 0
node_749 0 0
node_750 0 0
node_751 0 0
node_752 0 0
node_753 0 0
node_754 0 0
node_755 0 0
node_756 0 0
node_757 0 0
node_758 0 0
node_759 0 0
node_760 0 0
node_761 0 0
node_762 0 0
node_763 0 0
node_764 0 0
node_765 0 0
node_766 0 0
node_767 0 0
node_768 0 0
node_769 0 0
node_770 0 0
node_771 0 0
node_772 0 0
node_773 0 0
node_774 0 0
node_775 0 0
node_776 0 0
node_777 0 0
node_778 0 0
node_779 0 0
node_780 0 0
node_781 0 0
node_782 0 0
node_783 0 0
node_784 0 0
node_785 0 0
node_786 0 0
node_787 0 0
node_788 0 0
node_789 0 0
node_790 0 0
node_791 0 0
node_792 0 0
node_793 0 0
node_794 0 0
node_795 0 0
node_796 0 0
node_797 0 0
node_798 0 0
node_799 0 0
node_800 0 0
node_801 0 0
node_802 0 0
node_803 0 0
node_804 0 0
node_805 0 0
node_806 0 0
node_807 0 0
node_808 0 0
node_809 0 0
node_810 0 0
node_811 0 0
node_812 0 0
node_813 0 0
node_814 0 0
node_815 0 0
node_816 0 0
node_817 0 0
node_818 0 0
node_819 0 0
node_820 0 0
node_821 0 0
node_822 0 0
node_823 0 0
node_824 0 0
node_825 0 0
node_826 0 0
node_827 0 0
node_828 0 0
node_829 0 0
node_830 0 0
node_831 0 0
node_832 0 0
node_833 0 0
node_834 0 0
node_835 0 0
node_836 0 0
node_837 0 0
node_838 0 0
node_839 0 0
node_840 0 0
node_841 0 0
node_842 0 0
node_843 0 0
node_844 0 0
node_845 0 0
node_846 0 0
node_847 0 0
node_848 0 0
node_849 0 0
node_850 0 0
node_851 0 0
node_852 0 0
node_853 0 0
node_854 0 0
node_855 0 0
node_856 0 0
node_857 0 0
node_858 0 0
node_859 0 0
node_860 0 0
node_861 0 0
node_862 0 0
node_863 0 0
node_864 0 0
node_865 0 0
node_866 0 0
node_867 0 0
node_868 0 0
node_869 0 0
node_870 0 0
node_871 0 0
node_872 0 0
node_873 0 0
node_874 0 0
node_875 0 0
node_876 0 0
node_877 0 0
node_878 0 0
node_879 0 0
node_880 0 0
node_881 0 0
node_882 0 0
node_883 0 0
node_884 0 0
node_885 0 0
node_886 0 0
node_887 0 0
node_888 0 0
node_889 0 0
node_890 0 0
node_891 0 0
node_892 0 0
node_893 0 0
node_894 0 0
node_895 0 0
node_896 0 0
node_897 0 0
node_898 0 0
node_899 0 0
node_900 0 0
node_901 0 0
node_902 0 0
node_903 0 0
node_904 0 0
node_905 0 0
node_906 0 0
node_907 0 0
node_908 0 0
node_909 0 0
node_910 0 0
node_911 0 0
node_912 0 0
node_913 0 0
node_914 0 0
node_915 0 0
node_916 0 0
node_917 0 0
node_918 0 0
node_919 0 0
node_920 0 0
node_921 0 0
node_922 0 0
node_923 0 0
node_924 0 0
node_925 0 0
node_926 0 0
node_927 0 0
node_928 0 0
node_929 0 0
node_930 0 0
node_931 0 0
node_932 0 0
node_933 0 0
node_934 0 0
node_935 0 0
node_936 0 0
node_937 0 0
node_938 0 0
node_939 0 0
node_940 0 0
node_941 0 0
node_942 0 0
node_943 0 0
node_944 0 0
node_945 0 0
node_946 0 0
node_947 0 0
node_948 0 0
node_949 0 0
node_950 0 0
node_951 0 0
node_952 0 0
node_953 0 0
node_954 0 0
node_955 0 0
node_956 0 0
node_957 0 0
node_958 0 0
node_959 0 0
node_960 0 0
node_961 0 0
node_962 0 0
node_963 0 0
node_964 0 0
node_965 0 0
node_966 0 0
node_967 0 0
node_968 0 0
node_969 0 0
node_970 0 0
node_971 0 0
node_972 0 0
node_973 0 0
node_974 0 0
node_975 0 0
node_976 0 0
node_977 0 0
node_978 0 0
node_979 0 0
node_980 0 0
node_981 0 0
node_982 0 0
node_983 0 0
node_984 0 0
node_985 0 0
node_986 0 0
node_987 0 0
node_988 0 0
node_989 0 0
node_990 0 0
node_991 0 0
node_992 0 0
node_993 0 0
node_994 0 0
node_995 0 0
node_996 0 0
node_997 0 0
node_998 0 0
node_999 0 0
node_1000 0 0
node_1001 0 0
node_1002 0 0
node_1003 0 0
node_1004 0 0
node_1005 0 0
node_1006 0 0
node_1007 0 0
node_1008 0 0
node_1009 0 0
node_1010 0 0
node_1011 0 0
node_1012 0 0
node_1013 0 0
node_1014 0 0
node_1015 0 0
node_1016 0 0
node_1017 0 0
node_1018 0 0
node_1019 0 0
node_1020 0 0
node_1021 0 0
node_1022 0 0
node_1023 0 0
node_1024 0 0
node_1025 0 0
node_1026 0 0
node_1027 0 0
node_1028 0 0
node_1029 0 0
node_1030 0 0
node_1031 0 0
node_1032 0 0
node_1033 0 0
node_1034 0 0
node_1035 0 0
node_1036 0 0
node_1037 0 0
node_1038 0 0
node_1039 0 0
node_1040 0 0
node_1041 0 0
node_1042 0 0
node_1043 0 0
node_1044 0 0
node_1045 0 0
node_1046 0 0
node_1047 0 0
node_1048 0 0
node_1049 0 0
node_1050 0 0
node_1051 0 0
node_1052 0 0
node_1053 0 0
node_1054 0 0
node_1055 0 0
node_1056 0 0
node_1057 0 0
node_1058 0 0
node_1059 0 0
node_1060 0 0
node_1061 0 0
node_1062 0 0
node_1063 0 0
node_1064 0 0
node_1065 0 0
node_1066 0 0
node_1067 0 0
node_1068 0 0
node_1069 0 0
node_1070 0 0
node_1071 0 0
node_1072 0 0
node_1073 0 0
node_1074 0 0
node_1075 0 0
node_1076 0 0
node_1077 0 0
node_1078 0 0
node_1079 0 0
node_1080 0 0
node_1081 0 0
node_1082 0 0
node_1083 0 0
node_1084 0 0
node_1085 0 0
node_1086 0 0
node_1087 0 0
node_1088 0 0
node_1089 0 0
node_1090 0 0
node_1091 0 0
node_1092 0 0
node_1093 0 0
node_1094 0 0
node_1095 0 0
node_1096 0 0
node_1097 0 0
node_1098 0 0
node_1099 0 0
node_1100 0 0
node_1101 0 0
node_1102 0 0
node_1103 0 0
node_1104 0 0
node_1105 0 0
node_1106 0 0
node_1107 0 0
node_1108 0 0
node_1109 0 0
node_1110 0 0
node_1111 0 0
node_1112 0 0
node_1113 0 0
node_1114 0 0
node_1115 0 0
node_1116 0 0
node_1117 0 0
node_1118 0 0
node_1119 0 0
node_1120 0 0
node_1121 0 0
node_1122 0 0
node_1123 0 0
node_1124 0 0
node_1125 0 0
node_1126 0 0
node_1127 0 0
node_1128 0 0
node_1129 0 0
node_1130 0 0
node_1131 0 0
node_1132 0 0
node_1133 0 0
node_1134 0 0
node_1135 0 0
node_1136 0 0
node_1137 0 0
node_1138 0 0
node_1139 0 0
node_1140 0 0
node_1141 0 0
node_1142 0 0
node_1143 0 0
node_1144 0 0
node_1145 0 0
node_1146 0 0
node_1147 0 0
node_1148 0 0
node_1149 0 0
node_1150 0 0
node_1151 0 0
node_1152 0 0
node_1153 0 0
node_1154 0 0
node_1155 0 0
node_1156 0 0
node_1157 0 0
node_1158 0 0
node_1159 0 0
node_1160 0 0
node_1161 0 0
node_1162 0 0
node_1163 0 0
node_1164 0 0
node_1165 0 0
node_1166 0 0
node_1167 0 0
node_1168 0 0
node_1169 0 0
node_1170 0 0
node_1171 0 0
node_1172 0 0
node_1173 0 0
node_1174 0 0
node_1175 0 0
node_1176 0 0
node_1177 0 0
node_1178 0 0
node_1179 0 0
node_1180 0 0
node_1181 0 0
node_1182 0 0
node_1183 0 0
node_1184 0 0
node_1185 0 0
node_1186 0 0
node_1187 0 0
node_1188 0 0
node_1189 0 0
node_1190 0 0
node_1191 0 0
node_1192 0 0
node_1193 0 0
node_1194 0 0
node_1195 0 0
node_1196 0 0
node_1197 0 0
node_1198 0 0
node_1199 0 0
node_1200 0 0
node_1201 0 0
node_1202 0 0
node_1203 0 0
node_1204 0 0
node_1205 0 0
node_1206 0 0
node_1207 0 0
node_1208 0 0
node_1209 0 0
node_1210 0 0
node_1211 0 0
node_1212 0 0
node_1213 0 0
node_1214 0 0
node_1215 0 0
node_1216 0 0
node_1217 0 0
node_1218 0 0
node_1219 0 0
node_1220 0 0
node_1221 0 0
node_1222 0 0
node_1223 0 0
node_1224 0 0
node_1225 0 0
node_1226 0 0
node_1227 0 0
node_1228 0 0
node_1229 0 0
node_1230 0 0
node_1231 0 0
node_1232 0 0
node_1233 0 0
node_1234 0 0
node_1235 0 0
node_1236 0 0
node_1237 0 0
node_1238 0 0
node_1239 0 0
node_1240 0 0
node_1241 0 0
node_1242 0 0
node_1243 0 0
node_1244 0 0
node_1245 0 0
node_1246 0 0
node_1247 0 0
node_1248 0 0
node_1249 0 0
node_1250 0 0
node_1251 0 0
node_1252 0 0
node_1253 0 0
node_1254 0 0
node_1255 0 0
node_1256 0 0
node_1257 0 0
node_1258 0 0
node_1259 0 0
node_1260 0 0
node_1261 0 0
node_1262 0 0
node_1263 0 0
node_1264 0 0
node_1265 0 0
node_1266 0 0
node_1267 0 0
node_1268 0 0
node_1269 0 0
node_1270 0 0
node_1271 0 0
node_1272 0 0
node_1273 0 0
node_1274 0 0
node_1275 0 0
node_1276 0 0
node_1277 0 0
node_1278 0 0
node_1279 0 0
node_1280 0 0
node_1281 0 0
node_1282 0 0
node_1283 0 0
node_1284 0 0
node_1285 0 0
node_1286 0 0
node_1287 0 0
node_1288 0 0
node_1289 0 0
node_1290 0 0
node_1291 0 0
node_1292 0 0
node_1293 0 0
node_1294 0 0
node_1295 0 0
node_1296 0 0
node_1297 0 0
node_1298 0 0
node_1299 0 0
node_1300 0 0
node_1301 0 0
node_1302 0 0
node_1303 0 0
node_1304 0 0
node_1305 0 0
node_1306 0 0
node_1307 0 0
node_1308 0 0
node_1309 0 0
node_1310 0 0
node_1311 0 0
node_1312 0 0
node_1313 0 0
node_1314 0 0
node_1315 0 0
node_1316 0 0
node_1317 0 0
node_1318 0 0
node_1319 0 0
node_1320 0 0
node_1321 0 0
node_1322 0 0
node_1323 0 0
node_1324 0 0
node_1325 0 0
node_1326 0 0
node_1327 0 0
node_1328 0 0
node_1329 0 0
node_1330 0 0
node_1331 0 0
node_1332 0 0
node_1333 0 0
node_1334 0 0
node_1335 0 0
node_1336 0 0
node_1337 0 0
node_1338 0 0
node_1339 0 0
node_1340 0 0
node_1341 0 0
node_1342 0 0
node_1343 0 0
node_1344 0 0
node_1345 0 0
node_1346 0 0
node_1347 0 0
node_1348 0 0
node_1349 0 0
node_1350 0 0
node_1351 0 0
node_1352 0 0
node_1353 0 0
node_1354 0 0
node_1355 0 0
node_1356 0 0
node_1357 0 0
node_1358 0 0
node_1359 0 0
node_1360 0 0
node_1361 0 0
node_1362 0 0
node_1363 0 0
node_1364 0 0
node_1365 0 0
node_1366 0 0
node_1367 0 0
node_1368 0 0
node_1369 0 0
node_1370 0 0
node_1371 0 0
node_1372 0 0
node_1373 0 0
node_1374 0 0
node_1375 0 0
node_1376 0 0
node_1377 0 0
node_1378 0 0
node_1379 0 0
node_1380 0 0
node_1381 0 0
node_1382 0 0
node_1383 0 0
node_1384 0 0
node_1385 0 0
node_1386 0 0
node_1387 0 0
node_1388 0 0
node_1389 0 0
node_1390 0 0
node_1391 0 0
node_1392 0 0
node_1393 0 0
node_1394 0 0
node_1395 0 0
node_1396 0 0
node_1397 0 0
node_1398 0 0
node_1399 0 0
node_1400 0 0
node_1401 0 0
node_1402 0 0
node_1403 0 0
node_1404 0 0
node_1405 0 0
node_1406 0 0
node_1407 0 0
node_1408 0 0
node_1409 0 0
node_1410 0 0
node_1411 0 0
node_1412 0 0
node_1413 0 0
node_1414 0 0
node_1415 0 0
node_1416 0 0
node_1417 0 0
node_1418 0 0
node_1419 0 0
node_1420 0 0
node_1421 0 0
node_1422 0 0
node_1423 0 0
node_1424 0 0
node_1425 0 0
node_1426 0 0
node_1427 0 0
node_1428 0 0
node_1429 0 0
node_1430 0 0
node_1431 0 0
node_1432 0 0
node_1433 0 0
node_1434 0 0
node_1435 0 0
node_1436 0 0
node_1437 0 0
node_1438 0 0
node_1439 0 0
node_1440 0 0
node_1441 0 0
node_1442 0 0
node_1443 0 0
node_1444 0 0
node_1445 0 0
node_1446 0 0
node_1447 0 0
node_1448 0 0
node_1449 0 0
node_1450 0 0
node_1451 0 0
node_1452 0 0
node_1453 0 0
node_1454 0 0
node_1455 0 0
node_1456 0 0
node_1457 0 0
node_1458 0 0
node_1459 0 0
node_1460 0 0
node_1461 0 0
node_1462 0 0
node_1463 0 0
node_1464 0 0
node_1465 0 0
node_1466 0 0
node_1467 0 0
node_1468 0 0
node_1469 0 0
node_1470 0 0
node_1471 0 0
node_1472 0 0
node_1473 0 0
node_1474 0 0
node_1475 0 0
node_1476 0 0
node_1477 0 0
node_1478 0 0
node_1479 0 0
node_1480 0 0
node_1481 0 0
node_1482 0 0
node_1483 0 0
node_1484 0 0
node_1485 0 0
node_1486 0 0
node_1487 0 0
node_1488 0 0
node_1489 0 0
node_1490 0 0
node_1491 0 0
node_1492 0 0
node_1493 0 0
node_1494 0 0
node_1495 0 0
node_1496 0 0
node_1497 0 0
node_1498 0 0
node_1499 0 0
node_1500 0 0
node_1501 0 0
node_1502 0 0
node_1503 0 0
node_1504 0 0
node_1505 0 0
node_1506 0 0
node_1507 0 0
node_1508 0 0
node_1509 0 0
node_1510 0 0
node_1511 0 0
node_1512 0 0
node_1513 0 0
node_1514 0 0
node_1515 0 0
node_1516 0 0
node_1517 0 0
node_1518 0 0
node_1519 0 0
node_1520 0 0
node_1521 0 0
node_1522 0 0
node_1523 0 0
node_1524 0 0
node_1525 0 0
node_1526 0 0
node_1527 0 0
node_1528 0 0
node_1529 0 0
node_1530 0 0
node_1531 0 0
node_1532 0 0
node_1533 0 0
node_1534 0 0
node_1535 0 0
node_1536 0 0
node_1537 0 0
node_1538 0 0
node_1539 0 0
node_1540 0 0
node_1541 0 0
node_1542 0 0
node_1543 0 0
node_1544 0 0
node_1545 0 0
node_1546 0 0
node_1547 0 0
node_1548 0 0
node_1549 0 0
node_1550 0 0
node_1551 0 0
node_1552 0 0
node_1553 0 0
node_1554 0 0
node_1555 0 0
node_1556 0 0
node_1557 0 0
node_1558 0 0
node_1559 0 0
node_1560 0 0
node_1561 0 0
node_1562 0 0
node_1563 0 0
node_1564 0 0
node_1565 0 0
node_1566 0 0
node_1567 0 0
node_1568 0 0
node_1569 0 0
node_1570 0 0
node_1571 0 0
node_1572 0 0
node_1573 0 0
node_1574 0 0
node_1575 0 0
node_1576 0 0
node_1577 0 0
node_1578 0 0
node_1579 0 0
node_1580 0 0
node_1581 0 0
node_1582 0 0
node_1583 0 0
node_1584 0 0
node_1585 0 0
node_1586 0 0
node_1587 0 0
node_1588 0 0
node_1589 0 0
node_1590 0 0
node_1591 0 0
node_1592 0 0
node_1593 0 0
node_1594 0 0
node_1595 0 0
node_1596 0 0
node_1597 0 0
node_1598 0 0
node_1599 0 0
node_1600 0 0
node_1601 0 0
node_1602 0 0
node_1603 0 0
node_1604 0 0
node_1605 0 0
node_1606 0 0
node_1607 0 0
node_1608 0 0
node_1609 0 0
node_1610 0 0
node_1611 0 0
node_1612 0 0
node_1613 0 0
node_1614 0 0
node_1615 0 0
node_1616 0 0
node_1617 0 0
node_1618 0 0
node_1619 0 0
node_1620 0 0
node_1621 0 0
node_1622 0 0
node_1623 0 0
node_1624 0 0
node_1625 0 0
node_1626 0 0
node_1627 0 0
node_1628 0 0
node_1629 0 0
node_1630 0 0
node_1631 0 0
node_1632 0 0
node_1633 0 0
node_1634 0 0
node_1635 0 0
node_1636 0 0
node_1637 0 0
node_1638 0 0
node_1639 0 0
node_1640 0 0
node_1641 0 0
node_1642 0 0
node_1643 0 0
node_1644 0 0
node_1645 0 0
node_1646 0 0
node_1647 0 0
node_1648 0 0
node_1649 0 0
node_1650 0 0
node_1651 0 0
node_1652 0 0
node_1653 0 0
node_1654 0 0
node_1655 0 0
node_1656 0 0
node_1657 0 0
node_1658 0 0
node_1659 0 0
node_1660 0 0
node_1661 0 0
node_1662 0 0
node_1663 0 0
node_1664 0 0
node_1665 0 0
node_1666 0 0
node_1667 0 0
node_1668 0 0
node_1669 0 0
node_1670 0 0
node_1671 0 0
node_1672 0 0
node_1673 0 0
node_1674 0 0
node_1675 0 0
node_1676 0 0
node_1677 0 0
node_1678 0 0
node_1679 0 0
node_1680 0 0
node_1681 0 0
node_1682 0 0
node_1683 0 0
node_1684 0 0
node_1685 0 0
node_1686 0 0
node_1687 0 0
node_1688 0 0
node_1689 0 0
node_1690 0 0
node_1691 0 0
node_1692 0 0
node_1693 0 0
node_1694 0 0
node_1695 0 0
node_1696 0 0
node_1697 0 0
node_1698 0 0
node_1699 0 0
node_1700 0 0
node_1701 0 0
node_1702 0 0
node_1703 0 0
node_1704 0 0
node_1705 0 0
node_1706 0 0
node_1707 0 0
node_1708 0 0
node_1709 0 0
node_1710 0 0
node_1711 0 0
node_1712 0 0
node_1713 0 0
node_1714 0 0
node_1715 0 0
node_1716 0 0
node_1717 0 0
node_1718 0 0
node_1719 0 0
node_1720 0 0
node_1721 0 0
node_1722 0 0
node_1723 0 0
node_1724 0 0
node_1725 0 0
node_1726 0 0
node_1727 0 0
node_1728 0 0
node_1729 0 0
node_1730 0 0
node_1731 0 0
node_1732 0 0
node_1733 0 0
node_1734 0 0
node_1735 0 0
node_1736 0 0
node_1737 0 0
node_1738 0 0
node_1739 0 0
node_1740 0 0
node_1741 0 0
node_1742 0 0
node_1743 0 0
node_1744 0 0
node_1745 0 0
node_1746 0 0
node_1747 0 0
node_1748 0 0
node_1749 0 0
node_1750 0 0
node_1751 0 0
node_1752 0 0
node_1753 0 0
node_1754 0 0
node_1755 0 0
node_1756 0 0
node_1757 0 0
node_1758 0 0
node_1759 0 0
node_1760 0 0
node_1761 0 0
node_1762 0 0
node_1763 0 0
node_1764 0 0
node_1765 0 0
node_1766 0 0
node_1767 0 0
node_1768 0 0
node_1769 0 0
node_1770 0 0
node_1771 0 0
node_1772 0 0
node_1773 0 0
node_1774 0 0
node_1775 0 0
node_1776 0 0
node_1777 0 0
node_1778 0 0
node_1779 0 0
node_1780 0 0
node_1781 0 0
node_1782 0 0
node_1783 0 0
node_1784 0 0
node_1785 0 0
node_1786 0 0
node_1787 0 0
node_1788 0 0
node_1789 0 0
node_1790 0 0
node_1791 0 0
node_1792 0 0
node_1793 0 0
node_1794 0 0
node_1795 0 0
node_1796 0 0
node_1797 0 0
node_1798 0 0
node_1799 0 0
node_1800 0 0
node_1801 0 0
node_1802 0 0
node_1803 0 0
node_1804 0 0
node_1805 0 0
node_1806 0 0
node_1807 0 0
node_1808 0 0
node_1809 0 0
node_1810 0 0
node_1811 0 0
node_1812 0 0
node_1813 0 0
node_1814 0 0
node_1815 0 0
node_1816 0 0
node_1817 0 0
node_1818 0 0
node_1819 0 0
node_1820 0 0
node_1821 0 0
node_1822 0 0
node_1823 0 0
node_1824 0 0
node_1825 0 0
node_1826 0 0
node_1827 0 0
node_1828 0 0
node_1829 0 0
node_1830 0 0
node_1831 0 0
node_1832 0 0
node_1833 0 0
node_1834 0 0
node_1835 0 0
node_1836 0 0
node_1837 0 0
node_1838 0 0
node_1839 0 0
node_1840 0 0
node_1841 0 0
node_1842 0 0
node_1843 0 0
node_1844 0 0
node_1845 0 0
node_1846 0 0
node_1847 0 0
node_1848 0 0
node_1849 0 0
node_1850 0 0
node_1851 0 0
node_1852 0 0
node_1853 0 0
node_1854 0 0
node_1855 0 0
node_1856 0 0
node_1857 0 0

[RESERVOIRS]
;ID   Head

[TANKS]
;ID   Elevation InitLevel MinLevel MaxLevel Diameter

[PIPES]
;ID   StartNode EndNode Length Diameter Roughness
pipe_1 Junction-41891 Junction-10396 1.5175219 300 100
pipe_2 Junction-62481 Junction-10277 113.41344 300 100
pipe_3 Junction-474015 Junction-474016 6.9395776 300 100
pipe_4 Junction-61115 Junction-10506 12.980225 300 100
pipe_5 Junction-22677 Junction-22678 0.9727058 300 100
pipe_6 Junction-11035 Junction-23442 5.6965094 300 100
pipe_7 Junction-49377 Junction-11429 20.03765 300 100
pipe_8 Junction-32324 Junction-32325 18.087465 300 100
pipe_9 Junction-42523 Junction-42525 1.9614173 300 100
pipe_10 Junction-9502 Junction-9503 31.412998 300 100
pipe_11 Junction-42343 Junction-474623 0.068153135 300 100
pipe_12 Junction-11349 Junction-42536 7.3056045 300 100
pipe_13 Junction-54507 Junction-49235 18.624496 300 100
pipe_14 Junction-41890 Junction-33204 10.941947 300 100
pipe_15 Junction-23281 Junction-42194 177.17036 300 100
pipe_16 Junction-54616 Junction-42627 4.541141 300 100
pipe_17 Junction-34001 Junction-467411 9.761937 300 100
pipe_18 Junction-23801 Junction-477554 61.420185 300 100
pipe_19 Junction-473877 Junction-473879 0.7588478 300 100
pipe_20 Junction-54512 Junction-54510 4.3901505 300 100
pipe_21 Junction-60429 Junction-33071 1.0714264 300 100
pipe_22 Junction-42434 Junction-42435 14.870047 300 100
pipe_23 Junction-9284 Junction-9285 13.532529 300 100
pipe_24 Junction-11573 Junction-11574 48.82367 300 100
pipe_25 Junction-32870 Junction-54037 2.0978286 300 100
pipe_26 Junction-473881 Junction-473883 1.0691324 300 100
pipe_27 Junction-477199 Junction-477200 12.014541 300 100
pipe_28 Junction-22521 Junction-41705 8.715896 300 100
pipe_29 Junction-42677 Junction-42678 9.983039 300 100
pipe_30 Junction-474887 Junction-476183 20.249512 300 100
pipe_31 Junction-32978 Junction-22524 12.056812 300 100
pipe_32 Junction-474014 Junction-474017 3.295553 300 100
pipe_33 Junction-48993 Junction-48994 23.00108 300 100
pipe_34 Junction-32518 Junction-21978 24.106167 300 100
pipe_35 Junction-33574 Junction-23246 9.751878 300 100
pipe_36 Junction-48673 Junction-48674 24.192959 300 100
pipe_37 Junction-42106 Junction-33465 28.871883 300 100
pipe_38 Junction-473947 Junction-476005 1.00902 300 100
pipe_39 Junction-473816 Junction-473818 2.2667103 300 100
pipe_40 Junction-42626 Junction-58354 4.147152 300 100
pipe_41 Junction-58113 Junction-48993 10.887556 300 100
pipe_42 Junction-22683 Junction-22684 20.927118 300 100
pipe_43 Junction-62477 Junction-62482 186.0337 300 100
pipe_44 Junction-10122 Junction-10123 2.730162 300 100
pipe_45 Junction-42624 Junction-42625 22.390537 300 100
pipe_46 Junction-474083 Junction-473837 36.091866 300 100
pipe_47 Junction-33599 Junction-23270 32.862576 300 100
pipe_48 Junction-460472 Junction-42185 4.527361 300 100
pipe_49 Junction-23424 Junction-463968 15.576319 300 100
pipe_50 Junction-10501 Junction-54273 80.59117 300 100
pipe_51 Junction-477132 Junction-477133 32.71362 300 100
pipe_52 Junction-23246 Junction-60513 14.703597 300 100
pipe_53 Junction-9506 Junction-53913 21.408726 300 100
pipe_54 Junction-49241 Junction-49242 8.0845785 300 100
pipe_55 Junction-49166 Junction-54448 23.356394 300 100
pipe_56 Junction-58190 Junction-58191 0.4999087 300 100
pipe_57 Junction-34104 Junction-11444 5.2918134 300 100
pipe_58 Junction-33463 Junction-42105 31.798939 300 100
pipe_59 Junction-23427 Junction-49168 5.1021824 300 100
pipe_60 Junction-42611 Junction-11431 6.6783524 300 100
pipe_61 Junction-465061 Junction-54574 1.8100381 300 100
pipe_62 Junction-10618 Junction-48988 6.988649 300 100
pipe_63 Junction-42428 Junction-33875 4.109574 300 100
pipe_64 Junction-22992 Junction-10501 110.03985 300 100
pipe_65 Junction-476651 Junction-476652 7.138588 300 100
pipe_66 Junction-22374 Junction-22246 99.05459 300 100
pipe_67 Junction-9286 Junction-9287 15.328597 300 100
pipe_68 Junction-62469 Junction-33194 84.76023 300 100
pipe_69 Junction-474012 Junction-474077 1.8066533 300 100
pipe_70 Junction-10138 Junction-48744 1.0092087 300 100
pipe_71 Junction-61116 Junction-32327 65.55783 300 100
pipe_72 Junction-49054 Junction-58182 5.4522123 300 100
pipe_73 Junction-54229 Junction-42017 103.27319 300 100
pipe_74 Junction-23244 Junction-54373 20.32404 300 100
pipe_75 Junction-54269 Junction-54228 77.25524 300 100
pipe_76 Junction-10142 Junction-10143 14.008259 300 100
pipe_77 Junction-9280 Junction-9281 14.187246 300 100
pipe_78 Junction-54228 Junction-22897 39.842144 300 100
pipe_79 Junction-32327 Junction-21743 8.681804 300 100
pipe_80 Junction-22799 Junction-58056 8.048971 300 100
pipe_81 Junction-33748 Junction-49166 13.2928295 300 100
pipe_82 Junction-11344 Junction-11345 30.39939 300 100
pipe_83 Junction-53571 Junction-21329 3.7958274 300 100
pipe_84 Junction-21329 Junction-21330 7.331374 300 100
pipe_85 Junction-33363 Junction-58111 9.758189 300 100
pipe_86 Junction-23439 Junction-23440 8.771902 300 100
pipe_87 Junction-11034 Junction-42336 0.9057588 300 100