[TITLE]
Generated from GeoPackage

[JUNCTIONS]
;ID              	Elev        	Demand      	Pattern         
 Junction-48813  	105.536	0           	                	;
 Junction-11447  	85.28	0           	                	;
 Junction-23446  	114.26	1.188	                	;
 Junction-9981   	124.175	1.505	                	;
 Junction-33993  	85.01	0.029	                	;
 Junction-11315  	102.86	0           	                	;
 Junction-473829 	109.888	0           	                	;
 Junction-23570  	97.31	0           	                	;
 Junction-467411 	103.08	0.739	                	;
 Junction-42538  	84.512	0           	                	;
 Junction-60323  	107.855	2.331	                	;
 Junction-48401  	111.32	0           	                	;
 Junction-474084 	110.563	0           	                	;
 Junction-34096  	87.82	0           	                	;
 Junction-471899 	87.48	1.986	                	;
 Junction-474072 	107.19	0           	                	;
 Junction-472492 	111.995	0           	                	;
 Junction-11191  	107.11	0           	                	;
 Junction-23597  	103.295	0           	                	;
 Junction-62477  	110.69	0         	                	;
 Junction-473880 	104.6	0           	                	;
 Junction-465565 	106.425	2.024	                	;
 Junction-34006  	95.42	0           	                	;
 Junction-33755  	87.305	0           	                	;
 Junction-22900  	111.205	0           	                	;
 Junction-476117 	109.095	0           	                	;
 Junction-11198  	104.848	0           	                	;
 Junction-34394  	78.55	0           	                	;
 Junction-53743  	112.744	1.411	                	;
 Junction-23444  	116.11	0           	                	;
 Junction-60608  	96.625      	1.989	                	;
 Junction-464122 	93.346	0           	                	;
 Junction-10826  	122.19	10.494	                	;
 Junction-451223 	87.929	0           	                	;
 Junction-33579  	101.087	4.27	                	;
 Junction-58114  	120.085	10.521	                	;
 Junction-476208 	107.75      	0           	                	;
 Junction-54142  	107.798	0           	                	;
 Junction-9281   	110.643	1.199	                	;
 Junction-466029 	104.48	0           	                	;
 Junction-23698  	94.94	0           	                	;
 Junction-475421 	125.977	0           	                	;
 Junction-23258  	94.868	1.425	                	;
 Junction-33768  	116.607	7.459	                	;
 Junction-42523  	96.035	0           	                	;
 Junction-33883  	107.03	3.891	                	;
 Junction-49385  	85.692	0.083	                	;
 Junction-54465  	115.893	4.463	                	;
 Junction-23827  	80.417	0           	                	;
 Junction-54611  	86.09	0           	                	;
 Junction-54275  	126.02	0           	                	;
 Junction-42185  	115.713	1.394	                	;
 Junction-54456  	89.158	0           	                	;
 Junction-23917  	84.45	0.037	                	;
 Junction-23599  	108.8	0           	                	;
 Junction-23568  	101.95	2.031	                	;
 Junction-41798  	101.559	0           	                	;
 Junction-58242  	103.28	0           	                	;
 Junction-9506   	120.933	0.912	                	;
 Junction-49327  	92.38	0.051	                	;
 Junction-58280  	87.192	0           	                	;
 Junction-476061 	109.38	0           	                	;
 Junction-34107  	79.613	0           	                	;
 Junction-22808  	115.155	0           	                	;
 Junction-10396  	110.955	0           	                	;
 Junction-60615  	80.68	7.56	                	;
 Junction-10815  	115.645	0           	                	;
 Junction-23704  	84.315	0           	                	;
 Junction-21329  	122.917	1.286	                	;
 Junction-33999  	103.047	0           	                	;
 Junction-476226 	107.33	0           	                	;
 Junction-11443  	85.995	0.059	                	;
 Junction-53973  	125.025	0           	                	;
 Junction-23918  	78.933	0           	                	;
 Junction-33896  	93.52	0           	                	;
 Junction-470197 	131.84	0           	                	;
 Junction-22521  	119.61	2.888	                	;
 Junction-41523  	127.21	0.76	                	;
 Junction-469074 	121.445	1.049	                	;
 Junction-33468  	113.37	3.488	                	;
 Junction-33591  	105.407	0           	                	;
 Junction-48986  	105.055	2.418	                	;
 Junction-10287  	111.9	0           	                	;
 Junction-62462  	111.16	0         	                	;
 Junction-60430  	108.127	2.888	                	;
 Junction-54321  	111.14	1.888	                	;
 Junction-53648  	119.512	4.139	                	;
 Junction-34105  	86.955	0.044	                	;
 Junction-10395  	111       	2.073	                	;
 Junction-11183  	87.24	0           	                	;
 Junction-9501   	119.53	15.754	                	;
 Junction-11014  	88.49	0           	                	;
 Junction-62447  	84.522	0           	                	;
 Junction-23426  	92.43	2.324	                	;
 Junction-473890 	111.925	0           	                	;
 Junction-62481  	103.66	0         	                	;
 Junction-32327  	113.23	0           	                	;
 Junction-42105  	112.163	0           	                	;
 Junction-23127  	111.92	0           	                	;
 Junction-465848 	124.177	22.729	                	;
 Junction-54464  	117.07	0           	                	;
 Junction-10627  	112.703	0.969	                	;
 Junction-10143  	114.382	1.874	                	;
 Junction-48998  	118.42	2.06	                	;
 Junction-60376  	128.2	1.154	                	;
 Junction-10820  	107.78	0           	                	;
 Junction-23688  	94.47	2.383	                	;
 Junction-11452  	78.595	0.049	                	;
 Junction-11425  	86.985	0           	                	;
 Junction-10264  	103.4	0           	                	;
 Junction-475187 	93.363	0           	                	;
 Junction-49160  	106.81	0.815	                	;
 Junction-49070  	114.13	0           	                	;
 Junction-11423  	87.502	0.021	                	;
 Junction-22990  	110.05	10.152	                	;
 Junction-34183  	84.37	0.035	                	;
 Junction-11035  	117.153	0.749	                	;
 Junction-11570  	83.12	0.022	                	;
 Junction-469571 	113.07	0           	                	;
 Junction-49178  	97.827	0           	                	;
 Junction-32863  	122.467	4.202	                	;
 Junction-23449  	113.39	0           	                	;
 Junction-54522  	108.653	1.474	                	;
 Junction-475030 	125.933	0           	                	;
 Junction-23812  	88.925	0.025	                	;
 Junction-42106  	106.813	0           	                	;
 Junction-10617  	102.217	0           	                	;
 Junction-9050   	113.21	2.038	                	;
 Junction-23142  	114.2	0           	                	;
 Junction-22675  	108.373	0           	                	;
 Junction-33064  	110.797	0           	                	;
 Junction-41806  	120.09	1.355	                	;
 Junction-42188  	107.225	0.92	                	;
 Junction-473947 	109.37	0           	                	;
 Junction-476726 	103.998	0           	                	;
 Junction-11320  	92.135	0           	                	;
 Junction-473831 	110.67	0           	                	;
 Junction-34014  	81.483	18.817	                	;
 Junction-48995  	113.085	0.84	                	;
 Junction-57910  	106.675	1.526	                	;
 Junction-471020 	112.37	0.711	                	;
 Junction-473832 	111.37	0           	                	;
 Junction-33744  	102.61	2.101	                	;
 Junction-49249  	109.017	2.962	                	;
 Junction-54514  	84.123	0           	                	;
 Junction-33766  	117.04	0           	                	;
 Junction-464302 	94.53	0           	                	;
 Junction-33885  	106.547	0           	                	;
 Junction-42196  	123.487	0           	                	;
 Junction-23682  	94.493	1.668	                	;
 Junction-54374  	109.486	0           	                	;
 Junction-33475  	114.94	0           	                	;
 Junction-42614  	94.23	2.024	                	;
 Junction-60429  	111.442	0           	                	;
 Junction-23598  	103.095	0           	                	;
 Junction-22379  	126.17	1.035	                	;
 Junction-473877 	104.54	0           	                	;
 Junction-41940  	101.967	2.038	                	;
 Junction-34093  	82.35	0.053	                	;
 Junction-60431  	111.797	0           	                	;
 Junction-476583 	105.983	0           	                	;
 Junction-54229  	107.97	0           	                	;
 Junction-58075  	123.57	1.185	                	;
 Junction-41795  	111.16	21.001	                	;
 Junction-464378 	93.56	0.659	                	;
 Junction-41169  	111.81	1.153	                	;
 Junction-10130  	102.555	0           	                	;
 Junction-23427  	93.068	3.178	                	;
 Junction-42535  	84.755	0           	                	;
 Junction-476804 	104.048	0           	                	;
 Junction-23813  	89.69	0           	                	;
 Junction-54512  	95.757	0           	                	;
 Junction-473821 	105.09	0           	                	;
 Junction-11349  	84.555	0           	                	;
 Junction-11450  	78.467	0           	                	;
 Junction-476118 	108.717	0           	                	;
 Junction-54459  	109.295	1.269	                	;
 Junction-42180  	101.743	2.529	                	;
 Junction-60221  	118.4	3.526	                	;
 Junction-54042  	96.655	0           	                	;
 Junction-23804  	86.99	0           	                	;
 Junction-11201  	104.607	3.306	                	;
 Junction-33765  	117.12	2.042	                	;
 Junction-33375  	127.02	0.086	                	;
 Junction-61114  	132.5       	0           	                	;
 Junction-473824 	104.395	0           	                	;
 Junction-54034  	131.44	0           	                	;
 Junction-11579  	75.897	0.054	                	;
 Junction-42309  	102.2	1.062	                	;
 Junction-54379  	107.432	0           	                	;
 Junction-60613  	97.367	1.254	                	;
 Junction-473822 	104.405	0           	                	;
 Junction-60222  	118.505	5.654	                	;
 Junction-32859  	129.235	2.174	                	;
 Junction-49161  	105.357	0.881	                	;
 Junction-48610  	128.07	0           	                	;
 Junction-22382  	111.947	0           	                	;
 Junction-49380  	94.5        	0           	                	;
 Junction-48262  	111.807	0           	                	;
 Junction-57934  	128.083	2.027	                	;
 Junction-33292  	133.4	0.091	                	;
 Junction-34001  	102.67	1.041	                	;
 Junction-10277  	103.3	0           	                	;
 Junction-22908  	132.72	0.032	                	;
 Junction-11196  	110.467	0           	                	;
 Junction-41624  	113.985	1.041	                	;
 Junction-32329  	105.19	1.313	                	;
 Junction-48809  	98.903	1.962	                	;
 Junction-33374  	123.71	0           	                	;
 Junction-474010 	104.952	0           	                	;
 Junction-465060 	93.915	0.023	                	;
 Junction-10305  	129.795	0.037	                	;
 Junction-42194  	132.407	0           	                	;
 Junction-41528  	104.535	1.379	                	;
 Junction-54188  	125.6	1.073	                	;
 Junction-23132  	112.37	0           	                	;
 Junction-10487  	110.147	8.229	                	;
 Junction-33750  	90.128	0           	                	;
 Junction-48735  	104.015	2.244	                	;
 Junction-473823 	103.91	0           	                	;
 Junction-33778  	110.585	0           	                	;
 Junction-42333  	114.913	0           	                	;
 Junction-49247  	97.56	1.446	                	;
 Junction-58241  	103.435	3.338	                	;
 Junction-466551 	112.74	0           	                	;
 Junction-11335  	97.255	0           	                	;
 Junction-9857   	125.83	0           	                	;
 Junction-23801  	81.44	0           	                	;
 Junction-475535 	107.588	0           	                	;
 Junction-11332  	99.02	1.003	                	;
 Junction-10137  	101.55	0           	                	;
 Junction-33068  	109.255	1.579	                	;
 Junction-23690  	103.04	21.318	                	;
 Junction-33206  	111.233	0           	                	;
 Junction-42317  	90.08	0           	                	;
 Junction-33580  	99.217	3.739	                	;
 Junction-33748  	91.977	0           	                	;
 Junction-23589  	105.865	1.638	                	;
 Junction-42177  	109.257	0           	                	;
 Junction-23276  	113.88	0.889	                	;
 Junction-23816  	88.83	0.037	                	;
 Junction-472538 	87.95	0           	                	;
 Junction-23118  	114.169	17.329	                	;
 Junction-48810  	103.48	0           	                	;
 Junction-34011  	93.31	0           	                	;
 Junction-10397  	111.202	0           	                	;
 Junction-49323  	87.72	0           	                	;
 Junction-33367  	109.4	10.692	                	;
 Junction-22520  	121.51	5.292	                	;
 Junction-32858  	129.297	0           	                	;
 Junction-23260  	93.5        	1.558	                	;
 Junction-9988   	104.85	1.251	                	;
 Junction-54572  	98.277	0           	                	;
 Junction-41318  	111.892	0           	                	;
 Junction-23259  	93.84	3.418	                	;
 Junction-54469  	109.98	27.214	                	;
 Junction-477158 	108.13	0           	                	;
 Junction-42625  	83.703	0           	                	;
 Junction-11344  	83.322	0           	                	;
 Junction-11314  	96.126	1.484	                	;
 Junction-10821  	107.093	0           	                	;
 Junction-54466  	116.15	0           	                	;
 Junction-42193  	114.855	0           	                	;
 Junction-48263  	111.905	1.557	                	;
 Junction-33873  	93.783	2.846	                	;
 Junction-58028  	114.52	1.83	                	;
 Junction-471226 	133.373	7.295	                	;
 Junction-473879 	104.563	0           	                	;
 Junction-22904  	120.21	0           	                	;
 Junction-476592 	103.9	0           	                	;
 Junction-33602  	120.237	14.737	                	;
 Junction-57806  	108.695	2.118	                	;
 Junction-23244  	107.98	0           	                	;
 Junction-23245  	104.66	0           	                	;
 Junction-476589 	104.37	0           	                	;
 Junction-23815  	89.158	0.044	                	;
 Junction-41026  	119.795	2.063	                	;
 Junction-23266  	115.465	1.666	                	;
 Junction-469325 	98.077	1.359	                	;
 Junction-41628  	106.21	0           	                	;
 Junction-22893  	102.93	0.936	                	;
 Junction-10289  	112.29	2.181	                	;
 Junction-48994  	112.93	1.185	                	;
 Junction-23808  	89.217	0.047	                	;
 Junction-9503   	118.51	2.362	                	;
 Junction-474074 	106.734	0           	                	;
 Junction-22995  	112.877	0           	                	;
 Junction-22380  	126.25      	1.463	                	;
 Junction-23274  	110.044	0.551	                	;
 Junction-23436  	101.687	3.334	                	;
 Junction-42610  	80.55	0.047	                	;
 Junction-57984  	106.465	9.337	                	;
 Junction-54510  	95.947	3.031	                	;
 Junction-33743  	102.445	1.098	                	;
 Junction-32123  	122.283	1.526	                	;
 Junction-473952 	111.847	0           	                	;
 Junction-477200 	108.456	0           	                	;
 Junction-49250  	105.237	1.833	                	;
 Junction-33282  	100.537	1.663	                	;
 Junction-10281  	102.34	0           	                	;
 Junction-41948  	123.133	0           	                	;
 Junction-60407  	124.366	2.777	                	;
 Junction-33368  	109.435	8.745	                	;
 Junction-48737  	106.26	0           	                	;
 Junction-23587  	97.713	0.638	                	;
 Junction-11444  	85.51	0.042	                	;
 Junction-42342  	113.18	0           	                	;
 Junction-463202 	88.75       	0           	                	;
 Junction-22246  	128.86	0           	                	;
 Junction-33057  	103.12	2.951	                	;
 Junction-10279  	102.383	0           	                	;
 Junction-42327  	101.17	0           	                	;
 Junction-11312  	96.68	0.798	                	;
 Junction-41951  	136.96	0           	                	;
 Junction-54574  	95.263	0           	                	;
 Junction-42319  	90.953	0           	                	;
 Junction-23255  	96.192	2.658	                	;
 Junction-9860   	110.075	0           	                	;
 Junction-48402  	111.403	0           	                	;
 Junction-23445  	116.475	0           	                	;
 Junction-49264  	98.177	1.216	                	;
 Junction-42539  	81.46	0           	                	;
 Junction-33283  	99.707	0           	                	;
 Junction-9502   	120.34	0           	                	;
 Junction-53571  	122.993	0           	                	;
 Junction-33202  	105.88	1.937	                	;
 Junction-48872  	121.613	0           	                	;
 Junction-471221 	123.62	0           	                	;
 Junction-11193  	110.99	0           	                	;
 Junction-473514 	121.965	0           	                	;
 Junction-62446  	84.553	0           	                	;
 Junction-460581 	113.723	0         	                	;
 Junction-49053  	110.003	1.585	                	;
 Junction-476247 	104.1	0           	                	;
 Junction-33062  	108.403	0           	                	;
 Junction-23279  	114.945	0           	                	;
 Junction-48808  	99.503	1.805	                	;
 Junction-48673  	123.355	2.177	                	;
 Junction-23135  	112.83	0           	                	;
 Junction-41887  	104.27	9.337	                	;
 Junction-23695  	94.843	0.972	                	;
 Junction-23129  	112.12	1.373	                	;
 Junction-32320  	115.09	1.407	                	;
 Junction-23694  	96.005	1.07	                	;
 Junction-23256  	96.39	0           	                	;
 Junction-475816 	94.757	1.519	                	;
 Junction-33880  	96.555	3.222	                	;
 Junction-49260  	105.41	2.982	                	;
 Junction-61033  	100.72	0           	                	;
 Junction-477552 	79.855	0           	                	;
 Junction-477198 	108.63	0           	                	;
 Junction-21979  	111.423	0           	                	;
 Junction-23810  	90.08	0           	                	;
 Junction-23685  	80.6	0.053	                	;
 Junction-49067  	113.83	1.478	                	;
 Junction-468921 	122.357	1.024	                	;
 Junction-33218  	125.215	1.645	                	;
 Junction-465847 	125.115	0           	                	;
 Junction-48804  	104.1	0.234	                	;
 Junction-469128 	121.723	1.164	                	;
 Junction-11009  	104.63	1.746	                	;
 Junction-11012  	91.667	0.593	                	;
 Junction-23441  	117.09	0           	                	;
 Junction-22247  	128.505	0           	                	;
 Junction-472169 	87.85	0           	                	;
 Junction-32125  	118.767	0.763	                	;
 Junction-48988  	102.29	1.338	                	;
 Junction-49259  	106.95	1.484	                	;
 Junction-472491 	111.857	0           	                	;
 Junction-54507  	98.443	0           	                	;
 Junction-473820 	105.045	0           	                	;
 Junction-42442  	104.07	1.993	                	;
 Junction-10618  	102.595	1.292	                	;
 Junction-10613  	114.17	0           	                	;
 Junction-49054  	104.263	0.606	                	;
 Junction-41705  	119.785	6.338	                	;
 Junction-49253  	111.16	0           	                	;
 Junction-42023  	123.298	0           	                	;
 Junction-42534  	92.73	0.112	                	;
 Junction-48608  	130.98	0           	                	;
 Junction-472172 	87.835	0           	                	;
 Junction-32762  	119.61	1.122	                	;
 Junction-58057  	111.34	2.031	                	;
 Junction-23833  	78.993	0           	                	;
 Junction-57811  	104.447	6.296	                	;
 Junction-469491 	118.687	3.243	                	;
 Junction-22798  	114.437	0           	                	;
 Junction-23591  	104.61	0           	                	;
 Junction-10639  	115.86	1.512	                	;
 Junction-9504   	116.66	3.32	                	;
 Junction-33071  	111.504	1.708	                	;
 Junction-60348  	124.255	2.481	                	;
 Junction-474020 	110.545	0           	                	;
 Junction-21743  	113.38	0           	                	;
 Junction-48822  	125.395	1.345	                	;
 Junction-10393  	120.23	6.062	                	;
 Junction-54441  	107.423	0.669	                	;
 Junction-60614  	96.267	0.077	                	;
 Junction-34186  	84.773	0           	                	;
 Junction-11186  	89.6	0           	                	;
 Junction-53570  	123.235	0.996	                	;
 Junction-462494 	94.512	0           	                	;
 Junction-49322  	87.6	0           	                	;
 Junction-9866   	113.345	0           	                	;
 Junction-10614  	114.215	0           	                	;
 Junction-466127 	115.835	0           	                	;
 Junction-22680  	102.44	0           	                	;
 Junction-9854   	128.35	1.14	                	;
 Junction-49072  	117.235	0           	                	;
 Junction-11327  	94.665	0           	                	;
 Junction-23592  	103.74	1.71	                	;
 Junction-23262  	105.455	0           	                	;
 Junction-54447  	100.115	3.515	                	;
 Junction-33291  	133.38	0           	                	;
 Junction-33212  	117.905	1.094	                	;
 Junction-49394  	79.725	0           	                	;
 Junction-61031  	95.597	0           	                	;
 Junction-460476 	106.578	0           	                	;
 Junction-465496 	113.1	4.223	                	;
 Junction-58354  	80.885	0.023	                	;
 Junction-473886 	111.47	0           	                	;
 Junction-54573  	97.633	2.003	                	;
 Junction-60496  	118.393	1.763	                	;
 Junction-10791  	103.707	0           	                	;
 Junction-476668 	106.453	0           	                	;
 Junction-58191  	112.78	0           	                	;
 Junction-23700  	98.65	1.829	                	;
 Junction-467698 	93.32	0           	                	;
 Junction-469242 	85.245	0.041	                	;
 Junction-33741  	107.978	1.119	                	;
 Junction-33209  	125.46	1.355	                	;
 Junction-49168  	93.11	1.352	                	;
 Junction-22913  	137.95	0           	                	;
 Junction-62465  	114.2	0         	                	;
 Junction-464891 	88.25       	4.244	                	;
 Junction-23696  	99.14	3.421	                	;
 Junction-54452  	91.227	1.038	                	;
 Junction-462909 	111.19	0           	                	;
 Junction-32763  	105.9	2.595	                	;
 Junction-49166  	93        	0           	                	;
 Junction-58022  	103.837	0.627	                	;
 Junction-33756  	91.06	0           	                	;
 Junction-54314  	111.12	13.19	                	;
 Junction-60349  	117.7	0.906	                	;
 Junction-471900 	86.98	0           	                	;
 Junction-60582  	97.323	1.359	                	;
 Junction-22809  	125.737	1.875	                	;
 Junction-476725 	103.932	0           	                	;
 Junction-23434  	103.86	0           	                	;
 Junction-10280  	102.415	1.149	                	;
 Junction-10139  	102.51	4.394	                	;
 Junction-33877  	87.26	0           	                	;
 Junction-60497  	113.31	6.368	                	;
 Junction-9660   	129.33	0.686	                	;
 Junction-33376  	127.058	0           	                	;
 Junction-22682  	114.613	0.815	                	;
 Junction-23439  	114.33	1.062	                	;
 Junction-469379 	105.634	2.014	                	;
 Junction-32322  	115.264	3.571	                	;
 Junction-10270  	101.645	0           	                	;
 Junction-11181  	92.287	0.798	                	;
 Junction-23433  	99.74	0           	                	;
 Junction-41804  	108.425	0           	                	;
 Junction-49163  	102.31	3.055	                	;
 Junction-33213  	118.757	0           	                	;
 Junction-49392  	79.995	0           	                	;
 Junction-60611  	99.55	2.23	                	;
 Junction-454508 	106.25      	0           	                	;
 Junction-23916  	82.235	0           	                	;
 Junction-11016  	82.946	0.15	                	;
 Junction-42024  	127.23	0.048	                	;
 Junction-48676  	104.54	1.896	                	;
 Junction-32760  	126.21	0.99	                	;
 Junction-477084 	103.893	0           	                	;
 Junction-58288  	104.423	4.122	                	;
 Junction-10619  	100.977	1.038	                	;
 Junction-477136 	104.38	0           	                	;
 Junction-470031 	104.246	1.832	                	;
 Junction-10832  	117.657	0           	                	;
 Junction-476580 	105.893	0           	                	;
 Junction-11347  	85.945	0.69	                	;
 Junction-49378  	80.08	0.025	                	;
 Junction-23602  	97.923	0           	                	;
 Junction-22679  	102.403	8.344	                	;
 Junction-48869  	104.895	48.085	                	;
 Junction-9047   	114.38	0.707	                	;
 Junction-476666 	104.213	0           	                	;
 Junction-23120  	110.922	0           	                	;
 Junction-58243  	98.16	3.933	                	;
 Junction-54315  	102.707	0           	                	;
 Junction-22250  	125.21	1.254	                	;
 Junction-33183  	102.395	0           	                	;
 Junction-11343  	89.402	0.056	                	;
 Junction-22897  	105.215	0           	                	;
 Junction-60446  	102.4	0.973	                	;
 Junction-49377  	81.367	0.033	                	;
 Junction-42677  	85.092	0.106	                	;
 Junction-10825  	119.427	0           	                	;
 Junction-60612  	97.295	3.912	                	;
 Junction-476251 	104.533	0           	                	;
 Junction-62485  	84.367	0           	                	;
 Junction-34191  	80.22	0.024	                	;
 Junction-460584 	115.81	0           	                	;
 Junction-11011  	93.286	0.602	                	;
 Junction-53914  	118.945	1.638	                	;
 Junction-468903 	111.31	0           	                	;
 Junction-23595  	104.393	2.094	                	;
 Junction-62469  	101.49	0         	                	;
 Junction-468750 	106.057	0           	                	;
 Junction-10507  	127.235	0           	                	;
 Junction-23448  	114.04	0.777	                	;
 Junction-49439  	79.005	0.027	                	;
 Junction-54373  	108.375     	0           	                	;
 Junction-57982  	110.46	0           	                	;
 Junction-22671  	104.21	2.16	                	;
 Junction-41627  	121.53	5.313	                	;
 Junction-49434  	84.147	0           	                	;
 Junction-33465  	109.728	0           	                	;
 Junction-22911  	124.745	0.937	                	;
 Junction-58025  	102.415	0           	                	;
 Junction-23273  	108.67	1.641	                	;
 Junction-58111  	114.175	0           	                	;
 Junction-53843  	110.618	0.836	                	;
 Junction-54518  	77.53	0           	                	;
 Junction-22899  	118.666	23.391	                	;
 Junction-10124  	109.357	0           	                	;
 Junction-474036 	127.372	0           	                	;
 Junction-21748  	110.123	2.69	                	;
 Junction-41889  	105.26	1.679	                	;
 Junction-10128  	102.002	0           	                	;
 Junction-48993  	113.62	0.781	                	;
 Junction-466028 	104.315	0           	                	;
 Junction-23697  	98.87	0.829	                	;
 Junction-10290  	111.56	0           	                	;
 Junction-33584  	100.633	3.661	                	;
 Junction-49263  	104.145	2.349	                	;
 Junction-466030 	112.86	0         	                	;
 Junction-33195  	104.07	0           	                	;
 Junction-21330  	122.83	2.666	                	;
 Junction-32517  	111.177	0           	                	;
 Junction-33184  	104.78	0.69	                	;
 Junction-34009  	96.993	0           	                	;
 Junction-473874 	105.322	0           	                	;
 Junction-48405  	107.32	1.269	                	;
 Junction-49172  	100.253	0           	                	;
 Junction-48679  	109.455	0           	                	;
 Junction-61985  	103.005	0           	                	;
 Junction-54610  	87.6	0           	                	;
 Junction-475536 	106.72	0           	                	;
 Junction-42181  	93.858	2.415	                	;
 Junction-32761  	120.17	1.362	                	;
 Junction-54651  	80.18	0           	                	;
 Junction-22901  	111.25      	0.773	                	;