[TITLE]


[JUNCTIONS]
;ID              	Elev        	Demand      	Pattern         
 2               	87.07667    	0           	                	;
 3               	128.07251   	0           	                	;
 4               	116.675     	0           	                	;
 5               	104.175     	0           	                	;
 6               	84.48       	0           	                	;
 7               	104.82      	0           	                	;
 8               	113.09      	0           	                	;
 9               	80.774994   	0           	                	;
 10              	78.759995   	0           	                	;
 11              	84.51159    	0           	                	;
 12              	113.44      	0           	                	;
 13              	88.86666    	0           	                	;
 14              	102.44      	0           	                	;
 15              	104.01      	0           	                	;
 16              	85.01       	0           	                	;
 17              	102.415     	0           	                	;
 18              	101.55001   	0           	                	;
 19              	108.695     	0           	                	;
 20              	127.26      	0           	                	;
 21              	81.025      	0           	                	;
 22              	103.0       	0           	                	;
 23              	108.425     	0           	                	;
 24              	95.175      	0           	                	;
 25              	106.81      	0           	                	;
 26              	98.325      	0           	                	;
 27              	109.195     	0           	                	;
 28              	109.37333   	0           	                	;
 29              	103.095     	0           	                	;
 30              	121.61334   	0           	                	;
 31              	104.613335  	0           	                	;
 32              	84.12666    	0           	                	;
 33              	116.73      	0           	                	;
 34              	110.555     	0           	                	;
 35              	105.175     	0           	                	;
 36              	104.479996  	0           	                	;
 37              	108.24      	0           	                	;
 38              	90.002      	0           	                	;
 39              	97.68       	0           	                	;
 40              	101.49      	0           	                	;
 41              	100.97      	0           	                	;
 42              	123.725     	0           	                	;
 43              	109.706665  	0           	                	;
 44              	84.76667    	0           	                	;
 45              	96.855995   	0           	                	;
 46              	102.64      	0           	                	;
 47              	103.1175    	0           	                	;
 49              	99.98       	0           	                	;
 51              	102.595     	0           	                	;
 52              	99.27       	0           	                	;
 53              	82.235      	0           	                	;
 54              	121.17      	0           	                	;
 55              	114.68      	0           	                	;
 56              	83.223335   	0           	                	;
 57              	112.06      	0           	                	;
 58              	84.72666    	0           	                	;
 59              	121.965004  	0           	                	;
 60              	107.59333   	0           	                	;
 61              	129.48      	0           	                	;
 62              	101.68667   	0           	                	;
 63              	114.28999   	0           	                	;
 64              	85.244995   	0           	                	;
 65              	102.34      	0           	                	;
 66              	105.135     	0           	                	;
 67              	86.3        	0           	                	;
 68              	84.432495   	0           	                	;
 69              	104.04      	0           	                	;
 70              	103.57      	0           	                	;
 71              	137.95      	0           	                	;
 72              	121.24334   	0           	                	;
 74              	118.94501   	0           	                	;
 75              	101.89      	0           	                	;
 76              	117.15333   	0           	                	;
 77              	106.26      	0           	                	;
 78              	112.744     	0           	                	;
 79              	93.56       	0           	                	;
 80              	103.98      	0           	                	;
 81              	110.79667   	0           	                	;
 82              	99.83       	0           	                	;
 83              	108.465004  	0           	                	;
 84              	113.59667   	0           	                	;
 85              	114.04667   	0           	                	;
 86              	97.79       	0           	                	;
 88              	107.02      	0           	                	;
 89              	110.4       	0           	                	;
 90              	92.53001    	0           	                	;
 91              	101.68667   	0           	                	;
 92              	114.0       	0           	                	;
 93              	105.21      	0           	                	;
 94              	97.73       	0           	                	;
 95              	122.993324  	0           	                	;
 96              	91.43       	0           	                	;
 97              	110.880005  	0           	                	;
 98              	96.636665   	0           	                	;
 99              	116.60667   	0           	                	;
 100             	99.85       	0           	                	;
 101             	102.25      	0           	                	;
 102             	132.5       	0           	                	;
 103             	110.6       	0           	                	;
 104             	93.067505   	0           	                	;
 105             	94.94       	0           	                	;
 106             	94.450005   	0           	                	;
 107             	87.92917    	0           	                	;
 108             	102.225006  	0           	                	;
 109             	126.982506  	0           	                	;
 110             	106.049995  	0           	                	;
 111             	119.22      	0           	                	;
 112             	105.67      	0           	                	;
 113             	116.10999   	0           	                	;
 114             	118.77      	0           	                	;
 115             	117.725     	0           	                	;
 116             	110.003334  	0           	                	;
 117             	86.955      	0           	                	;
 118             	117.07      	0           	                	;
 119             	115.264084  	0           	                	;
 120             	114.15333   	0           	                	;
 121             	87.48       	0           	                	;
 122             	103.225     	0           	                	;
 123             	102.51      	10          	                	;
 124             	106.255     	0           	                	;
 125             	117.89001   	0           	                	;
 126             	106.33667   	0           	                	;
 127             	122.28333   	0           	                	;
 128             	101.61      	0           	                	;
 129             	116.01      	0           	                	;
 130             	105.44      	0           	                	;
 131             	86.985      	0           	                	;
 132             	108.555     	0           	                	;
 133             	112.70333   	0           	                	;
 134             	108.5725    	0           	                	;
 135             	110.130005  	0           	                	;
 136             	97.56       	0           	                	;
 137             	119.512     	0           	                	;
 138             	108.450005  	0           	                	;
 139             	88.11       	0           	                	;
 140             	105.09      	0           	                	;
 141             	112.847496  	0           	                	;
 142             	108.71667   	0           	                	;
 143             	130.965     	0           	                	;
 144             	104.44      	0           	                	;
 146             	105.0775    	0           	                	;
 147             	106.53      	0           	                	;
 148             	121.0       	0           	                	;
 149             	107.435     	0           	                	;
 150             	110.45      	0           	                	;
 151             	103.92334   	0           	                	;
 152             	106.9       	0           	                	;
 153             	78.63       	0           	                	;
 154             	120.085     	0           	                	;
 155             	100.72      	0           	                	;
 156             	111.92      	0           	                	;
 157             	107.845     	0           	                	;
 158             	104.64333   	0           	                	;
 159             	114.03666   	0           	                	;
 160             	111.84667   	0           	                	;
 161             	114.20526   	0           	                	;
 162             	104.07      	0           	                	;
 163             	115.89333   	0           	                	;
 164             	90.18667    	0           	                	;
 165             	110.545     	0           	                	;
 166             	125.21      	0           	                	;
 167             	111.159996  	0           	                	;
 168             	109.31      	0           	                	;
 169             	124.22      	0           	                	;
 170             	128.34999   	0           	                	;
 171             	102.175     	0           	                	;
 172             	106.3175    	0           	                	;
 173             	104.613335  	0           	                	;
 174             	78.595      	0           	                	;
 175             	97.28333    	0           	                	;
 176             	124.90667   	0           	                	;
 177             	87.98389    	0           	                	;
 178             	103.28      	0           	                	;
 179             	105.15      	0           	                	;
 180             	106.578     	0           	                	;
 182             	118.78815   	0           	                	;
 183             	108.005005  	0           	                	;
 184             	103.512     	0           	                	;
 185             	113.880005  	0           	                	;
 186             	102.93      	0           	                	;
 187             	101.57001   	0           	                	;
 188             	114.33667   	0           	                	;
 189             	114.395004  	0           	                	;
 190             	113.22666   	0           	                	;
 191             	119.60999   	0           	                	;
 192             	110.955     	0           	                	;
 193             	103.08      	0           	                	;
 194             	105.770004  	0           	                	;
 195             	103.93201   	0           	                	;
 196             	105.525     	0           	                	;
 197             	102.4       	0           	                	;
 198             	116.455     	0           	                	;
 199             	113.24      	0           	                	;
 200             	112.167496  	0           	                	;
 201             	110.505005  	0           	                	;
 202             	108.97      	0           	                	;
 203             	109.7275    	0           	                	;
 204             	112.69      	0           	                	;
 205             	112.83      	0           	                	;
 206             	103.92      	0           	                	;
 207             	97.295006   	0           	                	;
 208             	105.6       	0           	                	;
 209             	111.600006  	0           	                	;
 210             	105.990005  	0           	                	;
 211             	111.6       	0           	                	;
 212             	110.979996  	0           	                	;
 213             	109.84666   	0           	                	;
 214             	102.002495  	0           	                	;
 215             	98.44333    	0           	                	;
 216             	124.85333   	0           	                	;
 217             	111.670006  	0           	                	;
 218             	106.85333   	0           	                	;
 219             	94.84333    	0           	                	;
 220             	111.42334   	0           	                	;
 221             	104.3925    	0           	                	;
 222             	104.315     	0           	                	;
 223             	103.4       	0           	                	;
 224             	102.76666   	0           	                	;
 225             	107.5875    	0           	                	;
 226             	138.02333   	0           	                	;
 227             	118.42      	0           	                	;
 228             	111.37      	0           	                	;
 229             	104.075     	0           	                	;
 230             	128.2       	0           	                	;
 231             	80.87       	0           	                	;
 232             	84.369995   	0           	                	;
 233             	79.34       	0           	                	;
 234             	110.67      	0           	                	;
 235             	98.56333    	0           	                	;
 236             	108.2       	0           	                	;
 237             	105.14667   	0           	                	;
 238             	91.22666    	0           	                	;
 239             	83.33       	0           	                	;
 240             	117.18      	0           	                	;
 241             	100.17      	0           	                	;
 242             	112.17      	0           	                	;
 243             	88.925      	0           	                	;
 244             	96.9925     	0           	                	;
 245             	111.68      	0           	                	;
 246             	111.892494  	0           	                	;
 248             	103.2625    	0           	                	;
 249             	104.92      	0           	                	;
 250             	113.72617   	0           	                	;
 251             	104.034996  	0           	                	;
 252             	103.89333   	0           	                	;
 253             	97.142      	0           	                	;
 254             	111.17667   	0           	                	;
 255             	128.57251   	0           	                	;
 256             	111.05499   	0           	                	;
 257             	100.43      	0           	                	;
 258             	108.12      	0           	                	;
 260             	108.97666   	0           	                	;
 261             	109.455     	0           	                	;
 262             	103.003334  	0           	                	;
 263             	111.32667   	0           	                	;
 264             	109.475     	0           	                	;
 265             	85.51       	0           	                	;
 266             	85.37       	0           	                	;
 267             	111.81      	0           	                	;
 268             	79.97       	0           	                	;
 269             	101.559326  	0           	                	;
 270             	90.079994   	0           	                	;
 271             	111.8575    	0           	                	;
 272             	96.126      	0           	                	;
 273             	111.36667   	0           	                	;
 274             	88.20334    	0           	                	;
 275             	104.47348   	0           	                	;
 276             	111.19      	0           	                	;
 277             	78.9875     	0           	                	;
 278             	109.255005  	0           	                	;
 279             	110.89333   	0           	                	;
 280             	107.57666   	0           	                	;
 281             	101.99      	0           	                	;
 282             	120.09      	0           	                	;
 283             	108.67      	0           	                	;
 284             	113.02334   	0           	                	;
 285             	113.21      	0           	                	;
 286             	111.805     	0           	                	;
 287             	114.329994  	0           	                	;
 288             	80.68       	0           	                	;
 289             	103.42      	0           	                	;
 290             	81.44       	0           	                	;
 291             	117.005     	0           	                	;
 292             	110.255005  	0           	                	;
 293             	130.5       	0           	                	;
 294             	113.14      	0           	                	;
 295             	104.1       	0           	                	;
 296             	97.63333    	0           	                	;
 297             	103.28      	0           	                	;
 298             	133.37271   	0           	                	;
 299             	105.96      	0           	                	;
 300             	102.11666   	0           	                	;
 301             	111.246666  	0           	                	;
 302             	94.22       	0           	                	;
 303             	108.05      	0           	                	;
 304             	86.68667    	0           	                	;
 305             	105.875     	0           	                	;
 306             	81.46       	0           	                	;
 307             	107.465     	0           	                	;
 308             	105.535995  	0           	                	;
 309             	104.38      	0           	                	;
 310             	109.386665  	0           	                	;
 311             	97.255005   	0           	                	;
 312             	96.99       	0           	                	;
 313             	122.365     	0           	                	;
 314             	121.6075    	0           	                	;
 315             	86.54       	0           	                	;
 316             	111.65      	0           	                	;
 317             	119.494995  	0           	                	;
 318             	97.55334    	0           	                	;
 319             	101.35      	0           	                	;
 320             	111.76      	0           	                	;
 321             	93.293335   	0           	                	;
 322             	94.665      	0           	                	;
 323             	115.835     	0           	                	;
 324             	103.965     	0           	                	;
 325             	93.79666    	0           	                	;
 326             	99.503456   	0           	                	;
 327             	106.905     	0           	                	;
 328             	120.013336  	0           	                	;
 329             	84.932495   	0           	                	;
 330             	132.25      	0           	                	;
 331             	82.35       	0           	                	;
 332             	101.8875    	0           	                	;
 333             	102.71      	0           	                	;
 334             	126.68333   	0           	                	;
 335             	106.72      	0           	                	;
 336             	114.613335  	0           	                	;
 337             	106.73401   	0           	                	;
 339             	111.80666   	0           	                	;
 340             	105.322495  	0           	                	;
 341             	102.77      	0           	                	;
 342             	108.375     	0           	                	;
 343             	98.94       	0           	                	;
 344             	113.15334   	0           	                	;
 345             	120.215     	0           	                	;
 346             	114.865005  	0           	                	;
 347             	108.105     	0           	                	;
 348             	106.81      	0           	                	;
 349             	88.715004   	0           	                	;
 350             	101.232506  	0           	                	;
 351             	122.19      	0           	                	;
 352             	83.29       	0           	                	;
 353             	99.72       	0           	                	;
 354             	112.35667   	0           	                	;
 355             	108.8275    	0           	                	;
 356             	102.85      	0           	                	;
 357             	120.354996  	0           	                	;
 358             	94.868004   	0           	                	;
 359             	124.0275    	0           	                	;
 360             	81.4        	0           	                	;
 361             	84.7725     	0           	                	;
 362             	92.30001    	0           	                	;
 363             	112.119995  	0           	                	;
 364             	82.82       	0           	                	;
 365             	111.4425    	0           	                	;
 366             	122.916664  	0           	                	;
 367             	106.59      	0           	                	;
 368             	128.86      	0           	                	;
 369             	105.84      	0           	                	;
 370             	107.28      	0           	                	;
 371             	93.884995   	0           	                	;
 372             	105.833595  	0           	                	;
 373             	95.41       	0           	                	;
 374             	93.495      	0           	                	;
 375             	119.485     	0           	                	;
 376             	96.670715   	0           	                	;
 377             	85.6925     	0           	                	;
 378             	107.781784  	0           	                	;
 379             	113.832504  	0           	                	;
 380             	106.917496  	0           	                	;
 381             	110.95      	0           	                	;
 382             	80.22       	0           	                	;
 383             	114.412506  	0           	                	;
 384             	122.83      	0           	                	;
 385             	140         	0           	                	;
 386             	102.23      	0           	                	;
 387             	103.46      	0           	                	;
 388             	107.42334   	0           	                	;
 389             	108.880005  	0           	                	;
 390             	117.04      	0           	                	;
 391             	113.84      	0           	                	;
 392             	88.07334    	0           	                	;
 393             	122.46667   	0           	                	;
 394             	104.53      	0           	                	;
 395             	80.47666    	0           	                	;
 396             	107.81      	0           	                	;
 397             	116.12333   	0           	                	;
 398             	109.01666   	0           	                	;
 399             	111.2025    	0           	                	;
 400             	76.284935   	0           	                	;
 401             	104.53333   	0           	                	;
 402             	110.5       	0           	                	;
 403             	114.75      	0           	                	;
 404             	92.5        	0           	                	;
 405             	120.58      	0           	                	;
 406             	122.863335  	0           	                	;
 407             	103.920006  	0           	                	;
 408             	86.77       	0           	                	;
 409             	95.7575     	0           	                	;
 410             	95.947495   	0           	                	;
 411             	106.15667   	0           	                	;
 412             	104.575     	0           	                	;
 413             	110.85      	0           	                	;
 414             	89.61       	0           	                	;
 415             	122.2       	0           	                	;
 416             	103.91      	0           	                	;
 417             	109.435     	0           	                	;
 418             	105.98334   	0           	                	;
 419             	105.9       	0           	                	;
 420             	105.88      	0           	                	;
 421             	92.729996   	0           	                	;
 422             	84.76507    	0           	                	;
 423             	107.02334   	0           	                	;
 424             	97.29667    	0           	                	;
 425             	121.63333   	0           	                	;
 426             	104.145004  	0           	                	;
 427             	103.652     	0           	                	;
 428             	130.08333   	0           	                	;
 429             	114.2       	0           	                	;
 430             	114.91333   	0           	                	;
 431             	89.6        	0           	                	;
 432             	132.72002   	0           	                	;
 433             	99.46       	0           	                	;
 434             	103.77334   	0           	                	;
 435             	91.77667    	0           	                	;
 436             	100.39      	0           	                	;
 437             	119.61      	0           	                	;
 438             	107.68      	0           	                	;
 439             	112.29667   	0           	                	;
 440             	110.705     	0           	                	;
 441             	113.94334   	0           	                	;
 442             	109.979996  	0           	                	;
 443             	107.78      	0           	                	;
 444             	122.736664  	0           	                	;
 445             	83.759995   	0           	                	;
 446             	110.29      	0           	                	;
 447             	110.618004  	0           	                	;
 448             	111.63      	0           	                	;
 449             	105.045     	0           	                	;
 450             	112.8425    	0           	                	;
 451             	89.21667    	0           	                	;
 452             	81.36666    	0           	                	;
 453             	111.25      	0           	                	;
 454             	104.72666   	0           	                	;
 455             	103.886665  	0           	                	;
 456             	125.395004  	0           	                	;
 457             	122.427505  	0           	                	;
 458             	114.21751   	0           	                	;
 459             	105.8925    	0           	                	;
 460             	106.53666   	0           	                	;
 461             	85.09189    	0           	                	;
 462             	118.76666   	0           	                	;
 463             	102.2       	0           	                	;
 464             	109.245     	0           	                	;
 465             	105.72      	0           	                	;
 466             	115.94666   	0           	                	;
 467             	105.215     	0           	                	;
 468             	123.22666   	0           	                	;
 469             	111.35667   	0           	                	;
 470             	107.785     	0           	                	;
 471             	120.19399   	0           	                	;
 472             	90.986664   	0           	                	;
 473             	124.177216  	0           	                	;
 474             	109.775     	0           	                	;
 475             	109.36      	0           	                	;
 476             	106.862495  	0           	                	;
 477             	120.725006  	0           	                	;
 478             	113.02      	0           	                	;
 479             	94.19       	0           	                	;
 480             	117.235     	0           	                	;
 481             	103.29      	0           	                	;
 482             	107.65      	0           	                	;
 483             	95.615005   	0           	                	;
 484             	100.68      	0           	                	;